{
   "completed_at" : "20230410T202108Z",
   "completed_status" : "Success",
   "created_at" : "20221118T161510Z",
   "current_step" : 1,
   "eplusout_err" : "Program Version,EnergyPlus, Version 22.1.0-ed759b17ee, YMD=2023.04.10 14:19,\n   ** Warning ** ProcessScheduleInput: Schedule:Day:Interval=\"ECONOMIZER MAX OA FRACTION 70 PCT DEFAULT\", Blank Schedule Type Limits Name input -- will not be validated.\n   ** Warning ** ProcessScheduleInput: DecodeHHMMField, Invalid \"until\" field value is not a multiple of the minutes for each timestep: 00:59\n   **   ~~~   ** Other errors may result. Occurred in Day Schedule=REFRIGERATION DEFROST SCHEDULE DEFAULT\n   ** Warning ** ProcessScheduleInput: DecodeHHMMField, Invalid \"until\" field value is not a multiple of the minutes for each timestep: 00:59\n   **   ~~~   ** Other errors may result. Occurred in Day Schedule=REFRIGERATION DEFROST SCHEDULE DEFAULT 1\n   ** Warning ** ProcessScheduleInput: DecodeHHMMField, Invalid \"until\" field value is not a multiple of the minutes for each timestep: 00:59\n   **   ~~~   ** Other errors may result. Occurred in Day Schedule=REFRIGERATION DEFROST SCHEDULE DEFAULT 2\n   ** Warning ** ProcessScheduleInput: DecodeHHMMField, Invalid \"until\" field value is not a multiple of the minutes for each timestep: 10:59\n   **   ~~~   ** Other errors may result. Occurred in Day Schedule=REFRIGERATION DEFROST SCHEDULE DEFAULT 2\n   ** Warning ** ProcessScheduleInput: DecodeHHMMField, Invalid \"until\" field value is not a multiple of the minutes for each timestep: 00:59\n   **   ~~~   ** Other errors may result. Occurred in Day Schedule=REFRIGERATION DEFROST SCHEDULE DEFAULT 3\n   ** Warning ** ProcessScheduleInput: DecodeHHMMField, Invalid \"until\" field value is not a multiple of the minutes for each timestep: 10:59\n   **   ~~~   ** Other errors may result. Occurred in Day Schedule=REFRIGERATION DEFROST SCHEDULE DEFAULT 3\n   ** Warning ** ProcessScheduleInput: Schedule:Day:Interval=\"SCHOOLPRIMARY_BUSINESS_SCH DEFAULT\", Blank Schedule Type Limits Name input -- will not be validated.\n   ** Warning ** ProcessScheduleInput: Schedule:Day:Interval=\"SCHOOLPRIMARY_BUSINESS_SCH SUMMER DESIGN DAY\", Blank Schedule Type Limits Name input -- will not be validated.\n   ** Warning ** ProcessScheduleInput: Schedule:Day:Interval=\"SCHOOLPRIMARY_BUSINESS_SCH WINTER DESIGN DAY\", Blank Schedule Type Limits Name input -- will not be validated.\n   ** Warning ** ProcessScheduleInput: Schedule:Day:Interval=\"SCHOOLPRIMARY_BUSINESS_SCH WKDY DAY\", Blank Schedule Type Limits Name input -- will not be validated.\n   ** Warning ** ProcessScheduleInput: Schedule:Year=\"SCHOOLPRIMARY_BUSINESS_SCH\", Blank Schedule Type Limits Name input -- will not be validated.\n   ** Warning ** ProcessScheduleInput: Schedule:Constant=\"ALWAYS ON CONTINUOUS\", Blank Schedule Type Limits Name input -- will not be validated.\n   ************* Beginning Zone Sizing Calculations\n   ** Warning ** Weather file location will be used rather than entered (IDF) Location object.\n   **   ~~~   ** ..Location object=ATLANTA-HARTSFIELD JACKSON INTL AP_GA_USA\n   **   ~~~   ** ..Weather File Location=Red Bluff CA USA TMY--24216 WMO#=725910\n   **   ~~~   ** ..due to location differences, Latitude difference=[6.52] degrees, Longitude difference=[37.82] degrees.\n   **   ~~~   ** ..Time Zone difference=[3.0] hour(s), Elevation difference=[65.58] percent, [202.00] meters.\n   ** Warning ** CheckUsedConstructions: There are 11 nominally unused constructions in input.\n   **   ~~~   ** For explicit details on each unused construction, use Output:Diagnostics,DisplayExtraWarnings;\n   ** Warning ** GetInternalHeatGains: People=\"PRIMARYSCHOOL CAFETERIA PEOPLE\" has comfort related schedules but no thermal comfort model selected.\n   **   ~~~   ** If schedules are specified for air velocity, clothing insulation, and/or work efficiency but no thermal comfort\n   **   ~~~   ** thermal comfort model is selected, the schedules will be listed as unused schedules in the .err file.\n   **   ~~~   ** To avoid these errors, select a valid thermal comfort model or eliminate these schedules in the PEOPLE input.\n   ** Warning ** GetInternalHeatGains: People=\"PRIMARYSCHOOL CLASSROOM PEOPLE\" has comfort related schedules but no thermal comfort model selected.\n   **   ~~~   ** If schedules are specified for air velocity, clothing insulation, and/or work efficiency but no thermal comfort\n   **   ~~~   ** thermal comfort model is selected, the schedules will be listed as unused schedules in the .err file.\n   **   ~~~   ** To avoid these errors, select a valid thermal comfort model or eliminate these schedules in the PEOPLE input.\n   ** Warning ** GetInternalHeatGains: People=\"PRIMARYSCHOOL CLASSROOM PEOPLE\" has comfort related schedules but no thermal comfort model selected.\n   **   ~~~   ** If schedules are specified for air velocity, clothing insulation, and/or work efficiency but no thermal comfort\n   **   ~~~   ** thermal comfort model is selected, the schedules will be listed as unused schedules in the .err file.\n   **   ~~~   ** To avoid these errors, select a valid thermal comfort model or eliminate these schedules in the PEOPLE input.\n   ** Warning ** GetInternalHeatGains: People=\"PRIMARYSCHOOL CLASSROOM PEOPLE\" has comfort related schedules but no thermal comfort model selected.\n   **   ~~~   ** If schedules are specified for air velocity, clothing insulation, and/or work efficiency but no thermal comfort\n   **   ~~~   ** thermal comfort model is selected, the schedules will be listed as unused schedules in the .err file.\n   **   ~~~   ** To avoid these errors, select a valid thermal comfort model or eliminate these schedules in the PEOPLE input.\n   ** Warning ** GetInternalHeatGains: People=\"PRIMARYSCHOOL CLASSROOM PEOPLE\" has comfort related schedules but no thermal comfort model selected.\n   **   ~~~   ** If schedules are specified for air velocity, clothing insulation, and/or work efficiency but no thermal comfort\n   **   ~~~   ** thermal comfort model is selected, the schedules will be listed as unused schedules in the .err file.\n   **   ~~~   ** To avoid these errors, select a valid thermal comfort model or eliminate these schedules in the PEOPLE input.\n   ** Warning ** GetInternalHeatGains: People=\"PRIMARYSCHOOL CLASSROOM PEOPLE\" has comfort related schedules but no thermal comfort model selected.\n   **   ~~~   ** If schedules are specified for air velocity, clothing insulation, and/or work efficiency but no thermal comfort\n   **   ~~~   ** thermal comfort model is selected, the schedules will be listed as unused schedules in the .err file.\n   **   ~~~   ** To avoid these errors, select a valid thermal comfort model or eliminate these schedules in the PEOPLE input.\n   ** Warning ** GetInternalHeatGains: People=\"PRIMARYSCHOOL CLASSROOM PEOPLE\" has comfort related schedules but no thermal comfort model selected.\n   **   ~~~   ** If schedules are specified for air velocity, clothing insulation, and/or work efficiency but no thermal comfort\n   **   ~~~   ** thermal comfort model is selected, the schedules will be listed as unused schedules in the .err file.\n   **   ~~~   ** To avoid these errors, select a valid thermal comfort model or eliminate these schedules in the PEOPLE input.\n   ** Warning ** GetInternalHeatGains: People=\"PRIMARYSCHOOL CLASSROOM PEOPLE\" has comfort related schedules but no thermal comfort model selected.\n   **   ~~~   ** If schedules are specified for air velocity, clothing insulation, and/or work efficiency but no thermal comfort\n   **   ~~~   ** thermal comfort model is selected, the schedules will be listed as unused schedules in the .err file.\n   **   ~~~   ** To avoid these errors, select a valid thermal comfort model or eliminate these schedules in the PEOPLE input.\n   ** Warning ** GetInternalHeatGains: People=\"PRIMARYSCHOOL CLASSROOM PEOPLE\" has comfort related schedules but no thermal comfort model selected.\n   **   ~~~   ** If schedules are specified for air velocity, clothing insulation, and/or work efficiency but no thermal comfort\n   **   ~~~   ** thermal comfort model is selected, the schedules will be listed as unused schedules in the .err file.\n   **   ~~~   ** To avoid these errors, select a valid thermal comfort model or eliminate these schedules in the PEOPLE input.\n   ** Warning ** GetInternalHeatGains: People=\"PRIMARYSCHOOL CLASSROOM PEOPLE\" has comfort related schedules but no thermal comfort model selected.\n   **   ~~~   ** If schedules are specified for air velocity, clothing insulation, and/or work efficiency but no thermal comfort\n   **   ~~~   ** thermal comfort model is selected, the schedules will be listed as unused schedules in the .err file.\n   **   ~~~   ** To avoid these errors, select a valid thermal comfort model or eliminate these schedules in the PEOPLE input.\n   ** Warning ** GetInternalHeatGains: People=\"PRIMARYSCHOOL CLASSROOM PEOPLE\" has comfort related schedules but no thermal comfort model selected.\n   **   ~~~   ** If schedules are specified for air velocity, clothing insulation, and/or work efficiency but no thermal comfort\n   **   ~~~   ** thermal comfort model is selected, the schedules will be listed as unused schedules in the .err file.\n   **   ~~~   ** To avoid these errors, select a valid thermal comfort model or eliminate these schedules in the PEOPLE input.\n   ** Warning ** GetInternalHeatGains: People=\"PRIMARYSCHOOL CLASSROOM PEOPLE\" has comfort related schedules but no thermal comfort model selected.\n   **   ~~~   ** If schedules are specified for air velocity, clothing insulation, and/or work efficiency but no thermal comfort\n   **   ~~~   ** thermal comfort model is selected, the schedules will be listed as unused schedules in the .err file.\n   **   ~~~   ** To avoid these errors, select a valid thermal comfort model or eliminate these schedules in the PEOPLE input.\n   ** Warning ** GetInternalHeatGains: People=\"PRIMARYSCHOOL CLASSROOM PEOPLE\" has comfort related schedules but no thermal comfort model selected.\n   **   ~~~   ** If schedules are specified for air velocity, clothing insulation, and/or work efficiency but no thermal comfort\n   **   ~~~   ** thermal comfort model is selected, the schedules will be listed as unused schedules in the .err file.\n   **   ~~~   ** To avoid these errors, select a valid thermal comfort model or eliminate these schedules in the PEOPLE input.\n   ** Warning ** GetInternalHeatGains: People=\"PRIMARYSCHOOL COMPUTERROOM PEOPLE\" has comfort related schedules but no thermal comfort model selected.\n   **   ~~~   ** If schedules are specified for air velocity, clothing insulation, and/or work efficiency but no thermal comfort\n   **   ~~~   ** thermal comfort model is selected, the schedules will be listed as unused schedules in the .err file.\n   **   ~~~   ** To avoid these errors, select a valid thermal comfort model or eliminate these schedules in the PEOPLE input.\n   ** Warning ** GetInternalHeatGains: People=\"PRIMARYSCHOOL GYM PEOPLE\" has comfort related schedules but no thermal comfort model selected.\n   **   ~~~   ** If schedules are specified for air velocity, clothing insulation, and/or work efficiency but no thermal comfort\n   **   ~~~   ** thermal comfort model is selected, the schedules will be listed as unused schedules in the .err file.\n   **   ~~~   ** To avoid these errors, select a valid thermal comfort model or eliminate these schedules in the PEOPLE input.\n   ** Warning ** GetInternalHeatGains: People=\"PRIMARYSCHOOL KITCHEN PEOPLE\" has comfort related schedules but no thermal comfort model selected.\n   **   ~~~   ** If schedules are specified for air velocity, clothing insulation, and/or work efficiency but no thermal comfort\n   **   ~~~   ** thermal comfort model is selected, the schedules will be listed as unused schedules in the .err file.\n   **   ~~~   ** To avoid these errors, select a valid thermal comfort model or eliminate these schedules in the PEOPLE input.\n   ** Warning ** GetInternalHeatGains: People=\"PRIMARYSCHOOL LIBRARY PEOPLE\" has comfort related schedules but no thermal comfort model selected.\n   **   ~~~   ** If schedules are specified for air velocity, clothing insulation, and/or work efficiency but no thermal comfort\n   **   ~~~   ** thermal comfort model is selected, the schedules will be listed as unused schedules in the .err file.\n   **   ~~~   ** To avoid these errors, select a valid thermal comfort model or eliminate these schedules in the PEOPLE input.\n   ** Warning ** GetInternalHeatGains: People=\"PRIMARYSCHOOL OFFICE PEOPLE\" has comfort related schedules but no thermal comfort model selected.\n   **   ~~~   ** If schedules are specified for air velocity, clothing insulation, and/or work efficiency but no thermal comfort\n   **   ~~~   ** thermal comfort model is selected, the schedules will be listed as unused schedules in the .err file.\n   **   ~~~   ** To avoid these errors, select a valid thermal comfort model or eliminate these schedules in the PEOPLE input.\n   ** Warning ** Seems like you already tried to get a Handle on this Actuator 1times.\n   **   ~~~   ** Occurred for componentType='LIGHTS', controlType='ELECTRICITY RATE', uniqueKey='CORNER_CLASS_1_POD_1_ZN_1_FLR_1 ZN PRIMARYSCHOOL CLASSROOM LIGHTS'.\n   **   ~~~   ** You should take note that there is a risk of overwritting.\n   ** Warning ** Seems like you already tried to get a Handle on this Actuator 2times.\n   **   ~~~   ** Occurred for componentType='LIGHTS', controlType='ELECTRICITY RATE', uniqueKey='CORNER_CLASS_1_POD_1_ZN_1_FLR_1 ZN PRIMARYSCHOOL CLASSROOM LIGHTS'.\n   **   ~~~   ** You should take note that there is a risk of overwritting.\n   ** Warning ** Seems like you already tried to get a Handle on this Actuator 3times.\n   **   ~~~   ** Occurred for componentType='LIGHTS', controlType='ELECTRICITY RATE', uniqueKey='CORNER_CLASS_1_POD_1_ZN_1_FLR_1 ZN PRIMARYSCHOOL CLASSROOM LIGHTS'.\n   **   ~~~   ** You should take note that there is a risk of overwritting.\n   ** Warning ** Seems like you already tried to get a Handle on this Actuator 4times.\n   **   ~~~   ** Occurred for componentType='LIGHTS', controlType='ELECTRICITY RATE', uniqueKey='CORNER_CLASS_1_POD_1_ZN_1_FLR_1 ZN PRIMARYSCHOOL CLASSROOM LIGHTS'.\n   **   ~~~   ** You should take note that there is a risk of overwritting.\n   ** Warning ** Seems like you already tried to get a Handle on this Actuator 5times.\n   **   ~~~   ** Occurred for componentType='LIGHTS', controlType='ELECTRICITY RATE', uniqueKey='CORNER_CLASS_1_POD_1_ZN_1_FLR_1 ZN PRIMARYSCHOOL CLASSROOM LIGHTS'.\n   **   ~~~   ** You should take note that there is a risk of overwritting.\n   ** Warning ** Seems like you already tried to get a Handle on this Actuator 1times.\n   **   ~~~   ** Occurred for componentType='LIGHTS', controlType='ELECTRICITY RATE', uniqueKey='CORRIDOR_POD_1_ZN_1_FLR_1 ZN PRIMARYSCHOOL CORRIDOR LIGHTS'.\n   **   ~~~   ** You should take note that there is a risk of overwritting.\n   ** Warning ** Seems like you already tried to get a Handle on this Actuator 2times.\n   **   ~~~   ** Occurred for componentType='LIGHTS', controlType='ELECTRICITY RATE', uniqueKey='CORRIDOR_POD_1_ZN_1_FLR_1 ZN PRIMARYSCHOOL CORRIDOR LIGHTS'.\n   **   ~~~   ** You should take note that there is a risk of overwritting.\n   ** Warning ** Seems like you already tried to get a Handle on this Actuator 3times.\n   **   ~~~   ** Occurred for componentType='LIGHTS', controlType='ELECTRICITY RATE', uniqueKey='CORRIDOR_POD_1_ZN_1_FLR_1 ZN PRIMARYSCHOOL CORRIDOR LIGHTS'.\n   **   ~~~   ** You should take note that there is a risk of overwritting.\n   ** Warning ** Seems like you already tried to get a Handle on this Actuator 6times.\n   **   ~~~   ** Occurred for componentType='LIGHTS', controlType='ELECTRICITY RATE', uniqueKey='CORNER_CLASS_1_POD_1_ZN_1_FLR_1 ZN PRIMARYSCHOOL CLASSROOM LIGHTS'.\n   **   ~~~   ** You should take note that there is a risk of overwritting.\n   ** Warning ** Seems like you already tried to get a Handle on this Actuator 7times.\n   **   ~~~   ** Occurred for componentType='LIGHTS', controlType='ELECTRICITY RATE', uniqueKey='CORNER_CLASS_1_POD_1_ZN_1_FLR_1 ZN PRIMARYSCHOOL CLASSROOM LIGHTS'.\n   **   ~~~   ** You should take note that there is a risk of overwritting.\n   ** Warning ** Seems like you already tried to get a Handle on this Actuator 8times.\n   **   ~~~   ** Occurred for componentType='LIGHTS', controlType='ELECTRICITY RATE', uniqueKey='CORNER_CLASS_1_POD_1_ZN_1_FLR_1 ZN PRIMARYSCHOOL CLASSROOM LIGHTS'.\n   **   ~~~   ** You should take note that there is a risk of overwritting.\n   ** Warning ** Seems like you already tried to get a Handle on this Actuator 9times.\n   **   ~~~   ** Occurred for componentType='LIGHTS', controlType='ELECTRICITY RATE', uniqueKey='CORNER_CLASS_1_POD_1_ZN_1_FLR_1 ZN PRIMARYSCHOOL CLASSROOM LIGHTS'.\n   **   ~~~   ** You should take note that there is a risk of overwritting.\n   ** Warning ** Seems like you already tried to get a Handle on this Actuator 10times.\n   **   ~~~   ** Occurred for componentType='LIGHTS', controlType='ELECTRICITY RATE', uniqueKey='CORNER_CLASS_1_POD_1_ZN_1_FLR_1 ZN PRIMARYSCHOOL CLASSROOM LIGHTS'.\n   **   ~~~   ** You should take note that there is a risk of overwritting.\n   ** Warning ** Seems like you already tried to get a Handle on this Actuator 11times.\n   **   ~~~   ** Occurred for componentType='LIGHTS', controlType='ELECTRICITY RATE', uniqueKey='CORNER_CLASS_1_POD_1_ZN_1_FLR_1 ZN PRIMARYSCHOOL CLASSROOM LIGHTS'.\n   **   ~~~   ** You should take note that there is a risk of overwritting.\n   ** Warning ** Seems like you already tried to get a Handle on this Actuator 1times.\n   **   ~~~   ** Occurred for componentType='SCHEDULE:YEAR', controlType='SCHEDULE VALUE', uniqueKey='SCHOOLPRIMARY CLGSETP_SCH_NO_OPTIMUM'.\n   **   ~~~   ** You should take note that there is a risk of overwritting.\n   ** Warning ** Seems like you already tried to get a Handle on this Actuator 1times.\n   **   ~~~   ** Occurred for componentType='SCHEDULE:YEAR', controlType='SCHEDULE VALUE', uniqueKey='SCHOOLPRIMARY HTGSETP_SCH_NO_OPTIMUM'.\n   **   ~~~   ** You should take note that there is a risk of overwritting.\n   ** Warning ** Seems like you already tried to get a Handle on this Actuator 2times.\n   **   ~~~   ** Occurred for componentType='SCHEDULE:YEAR', controlType='SCHEDULE VALUE', uniqueKey='SCHOOLPRIMARY CLGSETP_SCH_NO_OPTIMUM'.\n   **   ~~~   ** You should take note that there is a risk of overwritting.\n   ** Warning ** Seems like you already tried to get a Handle on this Actuator 2times.\n   **   ~~~   ** Occurred for componentType='SCHEDULE:YEAR', controlType='SCHEDULE VALUE', uniqueKey='SCHOOLPRIMARY HTGSETP_SCH_NO_OPTIMUM'.\n   **   ~~~   ** You should take note that there is a risk of overwritting.\n   ** Warning ** ShadowCalculation: suspect Shading Calculation Update Frequency\n   **   ~~~   ** Value entered=[15000], Shadowing Calculations will be inaccurate.\n   ** Warning ** GetDaylightingControls: Fraction of zone or space controlled by the Daylighting reference points is < 1.0.\n   **   ~~~   ** ..discovered in Daylighting:Controls=\"BATH_ZN_1_FLR_1 ZN DAYLIGHTINGCONTROLS\", only 0.264 of the zone or space is controlled.\n   ** Warning ** GetDaylightingControls: Fraction of zone or space controlled by the Daylighting reference points is < 1.0.\n   **   ~~~   ** ..discovered in Daylighting:Controls=\"CAFETERIA_ZN_1_FLR_1 ZN DAYLIGHTINGCONTROLS\", only 0.494 of the zone or space is controlled.\n   ** Warning ** GetDaylightingControls: Fraction of zone or space controlled by the Daylighting reference points is < 1.0.\n   **   ~~~   ** ..discovered in Daylighting:Controls=\"COMPUTER_CLASS_ZN_1_FLR_1 ZN DAYLIGHTINGCONTROLS\", only 0.558 of the zone or space is controlled.\n   ** Warning ** GetDaylightingControls: Fraction of zone or space controlled by the Daylighting reference points is < 1.0.\n   **   ~~~   ** ..discovered in Daylighting:Controls=\"CORNER_CLASS_1_POD_1_ZN_1_FLR_1 ZN DAYLIGHTINGCONTROLS\", only 0.760 of the zone or space is controlled.\n   ** Warning ** GetDaylightingControls: Fraction of zone or space controlled by the Daylighting reference points is < 1.0.\n   **   ~~~   ** ..discovered in Daylighting:Controls=\"CORNER_CLASS_1_POD_2_ZN_1_FLR_1 ZN DAYLIGHTINGCONTROLS\", only 0.760 of the zone or space is controlled.\n   ** Warning ** GetDaylightingControls: Fraction of zone or space controlled by the Daylighting reference points is < 1.0.\n   **   ~~~   ** ..discovered in Daylighting:Controls=\"CORNER_CLASS_1_POD_3_ZN_1_FLR_1 ZN DAYLIGHTINGCONTROLS\", only 0.760 of the zone or space is controlled.\n   ** Warning ** GetDaylightingControls: Fraction of zone or space controlled by the Daylighting reference points is < 1.0.\n   **   ~~~   ** ..discovered in Daylighting:Controls=\"CORNER_CLASS_2_POD_1_ZN_1_FLR_1 ZN DAYLIGHTINGCONTROLS\", only 0.760 of the zone or space is controlled.\n   ** Warning ** GetDaylightingControls: Fraction of zone or space controlled by the Daylighting reference points is < 1.0.\n   **   ~~~   ** ..discovered in Daylighting:Controls=\"CORNER_CLASS_2_POD_2_ZN_1_FLR_1 ZN DAYLIGHTINGCONTROLS\", only 0.760 of the zone or space is controlled.\n   ** Warning ** GetDaylightingControls: Fraction of zone or space controlled by the Daylighting reference points is < 1.0.\n   **   ~~~   ** ..discovered in Daylighting:Controls=\"CORNER_CLASS_2_POD_3_ZN_1_FLR_1 ZN DAYLIGHTINGCONTROLS\", only 0.760 of the zone or space is controlled.\n   ** Warning ** GetDaylightingControls: Fraction of zone or space controlled by the Daylighting reference points is < 1.0.\n   **   ~~~   ** ..discovered in Daylighting:Controls=\"GYM_ZN_1_FLR_1 ZN DAYLIGHTINGCONTROLS\", only 0.974 of the zone or space is controlled.\n   ** Warning ** GetDaylightingControls: Fraction of zone or space controlled by the Daylighting reference points is < 1.0.\n   **   ~~~   ** ..discovered in Daylighting:Controls=\"KITCHEN_ZN_1_FLR_1 ZN DAYLIGHTINGCONTROLS\", only 0.240 of the zone or space is controlled.\n   ** Warning ** GetDaylightingControls: Fraction of zone or space controlled by the Daylighting reference points is < 1.0.\n   **   ~~~   ** ..discovered in Daylighting:Controls=\"LIBRARY_MEDIA_CENTER_ZN_1_FLR_1 ZN DAYLIGHTINGCONTROLS\", only 0.440 of the zone or space is controlled.\n   ** Warning ** GetDaylightingControls: Fraction of zone or space controlled by the Daylighting reference points is < 1.0.\n   **   ~~~   ** ..discovered in Daylighting:Controls=\"LOBBY_ZN_1_FLR_1 ZN DAYLIGHTINGCONTROLS\", only 0.558 of the zone or space is controlled.\n   ** Warning ** GetDaylightingControls: Fraction of zone or space controlled by the Daylighting reference points is < 1.0.\n   **   ~~~   ** ..discovered in Daylighting:Controls=\"MAIN_CORRIDOR_ZN_1_FLR_1 ZN DAYLIGHTINGCONTROLS\", only 0.106 of the zone or space is controlled.\n   ** Warning ** GetDaylightingControls: Fraction of zone or space controlled by the Daylighting reference points is < 1.0.\n   **   ~~~   ** ..discovered in Daylighting:Controls=\"MULT_CLASS_1_POD_1_ZN_1_FLR_1 ZN DAYLIGHTINGCONTROLS\", only 0.556 of the zone or space is controlled.\n   ** Warning ** GetDaylightingControls: Fraction of zone or space controlled by the Daylighting reference points is < 1.0.\n   **   ~~~   ** ..discovered in Daylighting:Controls=\"MULT_CLASS_1_POD_2_ZN_1_FLR_1 ZN DAYLIGHTINGCONTROLS\", only 0.556 of the zone or space is controlled.\n   ** Warning ** GetDaylightingControls: Fraction of zone or space controlled by the Daylighting reference points is < 1.0.\n   **   ~~~   ** ..discovered in Daylighting:Controls=\"MULT_CLASS_1_POD_3_ZN_1_FLR_1 ZN DAYLIGHTINGCONTROLS\", only 0.556 of the zone or space is controlled.\n   ** Warning ** GetDaylightingControls: Fraction of zone or space controlled by the Daylighting reference points is < 1.0.\n   **   ~~~   ** ..discovered in Daylighting:Controls=\"MULT_CLASS_2_POD_1_ZN_1_FLR_1 ZN DAYLIGHTINGCONTROLS\", only 0.556 of the zone or space is controlled.\n   ** Warning ** GetDaylightingControls: Fraction of zone or space controlled by the Daylighting reference points is < 1.0.\n   **   ~~~   ** ..discovered in Daylighting:Controls=\"MULT_CLASS_2_POD_2_ZN_1_FLR_1 ZN DAYLIGHTINGCONTROLS\", only 0.556 of the zone or space is controlled.\n   ** Warning ** GetDaylightingControls: Fraction of zone or space controlled by the Daylighting reference points is < 1.0.\n   **   ~~~   ** ..discovered in Daylighting:Controls=\"MULT_CLASS_2_POD_3_ZN_1_FLR_1 ZN DAYLIGHTINGCONTROLS\", only 0.556 of the zone or space is controlled.\n   ** Warning ** GetDaylightingControls: Fraction of zone or space controlled by the Daylighting reference points is < 1.0.\n   **   ~~~   ** ..discovered in Daylighting:Controls=\"OFFICES_ZN_1_FLR_1 ZN DAYLIGHTINGCONTROLS\", only 0.420 of the zone or space is controlled.\n   ** Warning ** Calculated design heating load for zone=KITCHEN_ZN_1_FLR_1 ZN is zero.\n   **   ~~~   ** Check Sizing:Zone and ZoneControl:Thermostat inputs.\n   ************* Beginning System Sizing Calculations\n   ** Warning ** Since Zone Minimum Air Flow Input Method = CONSTANT, input for Fixed Minimum Air Flow Rate will be ignored.\n   **   ~~~   ** Occurs in AirTerminal:SingleDuct:VAV:Reheat = BATH_ZN_1_FLR_1 ZN VAV TERMINAL\n   ** Warning ** Since Zone Minimum Air Flow Input Method = CONSTANT, input for Fixed Minimum Air Flow Rate will be ignored.\n   **   ~~~   ** Occurs in AirTerminal:SingleDuct:VAV:Reheat = COMPUTER_CLASS_ZN_1_FLR_1 ZN VAV TERMINAL\n   ** Warning ** Since Zone Minimum Air Flow Input Method = CONSTANT, input for Fixed Minimum Air Flow Rate will be ignored.\n   **   ~~~   ** Occurs in AirTerminal:SingleDuct:VAV:Reheat = CORNER_CLASS_1_POD_1_ZN_1_FLR_1 ZN VAV TERMINAL\n   ** Warning ** Since Zone Minimum Air Flow Input Method = CONSTANT, input for Fixed Minimum Air Flow Rate will be ignored.\n   **   ~~~   ** Occurs in AirTerminal:SingleDuct:VAV:Reheat = CORNER_CLASS_1_POD_2_ZN_1_FLR_1 ZN VAV TERMINAL\n   ** Warning ** Since Zone Minimum Air Flow Input Method = CONSTANT, input for Fixed Minimum Air Flow Rate will be ignored.\n   **   ~~~   ** Occurs in AirTerminal:SingleDuct:VAV:Reheat = CORNER_CLASS_1_POD_3_ZN_1_FLR_1 ZN VAV TERMINAL\n   ** Warning ** Since Zone Minimum Air Flow Input Method = CONSTANT, input for Fixed Minimum Air Flow Rate will be ignored.\n   **   ~~~   ** Occurs in AirTerminal:SingleDuct:VAV:Reheat = CORNER_CLASS_2_POD_1_ZN_1_FLR_1 ZN VAV TERMINAL\n   ** Warning ** Since Zone Minimum Air Flow Input Method = CONSTANT, input for Fixed Minimum Air Flow Rate will be ignored.\n   **   ~~~   ** Occurs in AirTerminal:SingleDuct:VAV:Reheat = CORNER_CLASS_2_POD_2_ZN_1_FLR_1 ZN VAV TERMINAL\n   ** Warning ** Since Zone Minimum Air Flow Input Method = CONSTANT, input for Fixed Minimum Air Flow Rate will be ignored.\n   **   ~~~   ** Occurs in AirTerminal:SingleDuct:VAV:Reheat = CORNER_CLASS_2_POD_3_ZN_1_FLR_1 ZN VAV TERMINAL\n   ** Warning ** Since Zone Minimum Air Flow Input Method = CONSTANT, input for Fixed Minimum Air Flow Rate will be ignored.\n   **   ~~~   ** Occurs in AirTerminal:SingleDuct:VAV:Reheat = CORRIDOR_POD_1_ZN_1_FLR_1 ZN VAV TERMINAL\n   ** Warning ** Since Zone Minimum Air Flow Input Method = CONSTANT, input for Fixed Minimum Air Flow Rate will be ignored.\n   **   ~~~   ** Occurs in AirTerminal:SingleDuct:VAV:Reheat = CORRIDOR_POD_2_ZN_1_FLR_1 ZN VAV TERMINAL\n   ** Warning ** Since Zone Minimum Air Flow Input Method = CONSTANT, input for Fixed Minimum Air Flow Rate will be ignored.\n   **   ~~~   ** Occurs in AirTerminal:SingleDuct:VAV:Reheat = CORRIDOR_POD_3_ZN_1_FLR_1 ZN VAV TERMINAL\n   ** Warning ** Since Zone Minimum Air Flow Input Method = CONSTANT, input for Fixed Minimum Air Flow Rate will be ignored.\n   **   ~~~   ** Occurs in AirTerminal:SingleDuct:VAV:Reheat = LIBRARY_MEDIA_CENTER_ZN_1_FLR_1 ZN VAV TERMINAL\n   ** Warning ** Since Zone Minimum Air Flow Input Method = CONSTANT, input for Fixed Minimum Air Flow Rate will be ignored.\n   **   ~~~   ** Occurs in AirTerminal:SingleDuct:VAV:Reheat = LOBBY_ZN_1_FLR_1 ZN VAV TERMINAL\n   ** Warning ** Since Zone Minimum Air Flow Input Method = CONSTANT, input for Fixed Minimum Air Flow Rate will be ignored.\n   **   ~~~   ** Occurs in AirTerminal:SingleDuct:VAV:Reheat = MAIN_CORRIDOR_ZN_1_FLR_1 ZN VAV TERMINAL\n   ** Warning ** Since Zone Minimum Air Flow Input Method = CONSTANT, input for Fixed Minimum Air Flow Rate will be ignored.\n   **   ~~~   ** Occurs in AirTerminal:SingleDuct:VAV:Reheat = MECH_ZN_1_FLR_1 ZN VAV TERMINAL\n   ** Warning ** Since Zone Minimum Air Flow Input Method = CONSTANT, input for Fixed Minimum Air Flow Rate will be ignored.\n   **   ~~~   ** Occurs in AirTerminal:SingleDuct:VAV:Reheat = MULT_CLASS_1_POD_1_ZN_1_FLR_1 ZN VAV TERMINAL\n   ** Warning ** Since Zone Minimum Air Flow Input Method = CONSTANT, input for Fixed Minimum Air Flow Rate will be ignored.\n   **   ~~~   ** Occurs in AirTerminal:SingleDuct:VAV:Reheat = MULT_CLASS_1_POD_2_ZN_1_FLR_1 ZN VAV TERMINAL\n   ** Warning ** Since Zone Minimum Air Flow Input Method = CONSTANT, input for Fixed Minimum Air Flow Rate will be ignored.\n   **   ~~~   ** Occurs in AirTerminal:SingleDuct:VAV:Reheat = MULT_CLASS_1_POD_3_ZN_1_FLR_1 ZN VAV TERMINAL\n   ** Warning ** Since Zone Minimum Air Flow Input Method = CONSTANT, input for Fixed Minimum Air Flow Rate will be ignored.\n   **   ~~~   ** Occurs in AirTerminal:SingleDuct:VAV:Reheat = MULT_CLASS_2_POD_1_ZN_1_FLR_1 ZN VAV TERMINAL\n   ** Warning ** Since Zone Minimum Air Flow Input Method = CONSTANT, input for Fixed Minimum Air Flow Rate will be ignored.\n   **   ~~~   ** Occurs in AirTerminal:SingleDuct:VAV:Reheat = MULT_CLASS_2_POD_2_ZN_1_FLR_1 ZN VAV TERMINAL\n   ** Warning ** Since Zone Minimum Air Flow Input Method = CONSTANT, input for Fixed Minimum Air Flow Rate will be ignored.\n   **   ~~~   ** Occurs in AirTerminal:SingleDuct:VAV:Reheat = MULT_CLASS_2_POD_3_ZN_1_FLR_1 ZN VAV TERMINAL\n   ** Warning ** Since Zone Minimum Air Flow Input Method = CONSTANT, input for Fixed Minimum Air Flow Rate will be ignored.\n   **   ~~~   ** Occurs in AirTerminal:SingleDuct:VAV:Reheat = OFFICES_ZN_1_FLR_1 ZN VAV TERMINAL\n   ** Warning ** AirLoopHVAC:UnitarySystem = CAFETERIA_ZN_1_FLR_1 ZN PSZ-AC_2-7 UNITARY AC\n   **   ~~~   ** Method used to determine the cooling supply air flow rate is not specified when cooling coil is present.\n   ** Warning ** AirLoopHVAC:UnitarySystem = CAFETERIA_ZN_1_FLR_1 ZN PSZ-AC_2-7 UNITARY AC\n   **   ~~~   ** Method used to determine the heating supply air flow rate is not specified when heating coil is present.\n   ** Warning ** AirLoopHVAC:UnitarySystem = GYM_ZN_1_FLR_1 ZN PSZ-AC_2-5 UNITARY AC\n   **   ~~~   ** Method used to determine the cooling supply air flow rate is not specified when cooling coil is present.\n   ** Warning ** AirLoopHVAC:UnitarySystem = GYM_ZN_1_FLR_1 ZN PSZ-AC_2-5 UNITARY AC\n   **   ~~~   ** Method used to determine the heating supply air flow rate is not specified when heating coil is present.\n   ** Warning ** AirLoopHVAC:UnitarySystem = KITCHEN_ZN_1_FLR_1 ZN PSZ-AC_1-6 UNITARY AC\n   **   ~~~   ** Method used to determine the cooling supply air flow rate is not specified when cooling coil is present.\n   ** Warning ** AirLoopHVAC:UnitarySystem = KITCHEN_ZN_1_FLR_1 ZN PSZ-AC_1-6 UNITARY AC\n   **   ~~~   ** Method used to determine the heating supply air flow rate is not specified when heating coil is present.\n   ************* Beginning Plant Sizing Calculations\n   ** Warning ** GetOAControllerInputs: Controller:MechanicalVentilation=\"CONTROLLER MECHANICAL VENTILATION 3\n   **   ~~~   ** Cannot locate a matching DesignSpecification:ZoneAirDistribution object for Zone=\"CAFETERIA_ZN_1_FLR_1 ZN\".\n   **   ~~~   ** Using default zone air distribution effectiveness of 1.0 for heating and cooling.\n   ** Warning ** GetOAControllerInputs: Controller:MechanicalVentilation=\"CONTROLLER MECHANICAL VENTILATION 2\n   **   ~~~   ** Cannot locate a matching DesignSpecification:ZoneAirDistribution object for Zone=\"GYM_ZN_1_FLR_1 ZN\".\n   **   ~~~   ** Using default zone air distribution effectiveness of 1.0 for heating and cooling.\n   ** Warning ** GetOAControllerInputs: Controller:MechanicalVentilation=\"CONTROLLER MECHANICAL VENTILATION 1\n   **   ~~~   ** Cannot locate a matching DesignSpecification:ZoneAirDistribution object for Zone=\"KITCHEN_ZN_1_FLR_1 ZN\".\n   **   ~~~   ** Using default zone air distribution effectiveness of 1.0 for heating and cooling.\n   ** Warning ** Controller:MechanicalVentilation=\"CONTROLLER MECHANICAL VENTILATION 2\", Zone OA/person rate\n   **   ~~~   ** For Zone=\"GYM_ZN_1_FLR_1 ZN\".\n   **   ~~~   ** Zone outside air per person rate not set in Design Specification Outdoor Air Object=\"PRIMARYSCHOOL GYM VENTILATION\".\n   ** Warning ** Check input. Pump nominal power or motor efficiency is set to 0, for pump=BOOSTER WATER LOOP PUMP\n   ** Warning ** For zone=KITCHEN_ZN_1_FLR_1 ZN return air cooling by refrigerated cases will be applied to the zone air.\n   **   ~~~   **   This zone has no return air or is served by an on/off HVAC system.\n   ** Warning ** Output:Meter: invalid Key Name=\"HEATREJECTION:ELECTRICITY\" - not found.\n   ** Warning ** Output:Meter: invalid Key Name=\"HUMIDIFIER:ELECTRICITY\" - not found.\n   ** Warning ** Output:Meter: invalid Key Name=\"DISTRICTCOOLING:FACILITY\" - not found.\n   ** Warning ** Output:Meter: invalid Key Name=\"DISTRICTHEATING:FACILITY\" - not found.\n   ** Warning ** Output:Meter:MeterFileOnly requested for \"Electricity:Facility\" (TimeStep), already on \"Output:Meter\". Will report to both eplusout.eso and eplusout.mtr\n   ************* Testing Individual Branch Integrity\n   ************* All Branches passed integrity testing\n   ************* Testing Individual Supply Air Path Integrity\n   ************* All Supply Air Paths passed integrity testing\n   ************* Testing Individual Return Air Path Integrity\n   ************* All Return Air Paths passed integrity testing\n   ************* No node connection errors were found.\n   ************* Beginning Simulation\n   ** Warning ** In Output:Table:Monthly 'BUILDING ENERGY PERFORMANCE - ELECTRICITY' invalid Variable or Meter Name 'HEATREJECTION:ELECTRICITY'\n   ** Warning ** In Output:Table:Monthly 'BUILDING ENERGY PERFORMANCE - ELECTRICITY' invalid Variable or Meter Name 'HUMIDIFIER:ELECTRICITY'\n   ** Warning ** In Output:Table:Monthly 'BUILDING ENERGY PERFORMANCE - ELECTRICITY' invalid Variable or Meter Name 'COGENERATION:ELECTRICITY'\n   ** Warning ** In Output:Table:Monthly 'BUILDING ENERGY PERFORMANCE - NATURAL GAS' invalid Variable or Meter Name 'EXTERIOREQUIPMENT:NATURALGAS'\n   ** Warning ** In Output:Table:Monthly 'BUILDING ENERGY PERFORMANCE - NATURAL GAS' invalid Variable or Meter Name 'COOLING:NATURALGAS'\n   ** Warning ** In Output:Table:Monthly 'BUILDING ENERGY PERFORMANCE - NATURAL GAS' invalid Variable or Meter Name 'COGENERATION:NATURALGAS'\n   ** Warning ** In Output:Table:Monthly 'BUILDING ENERGY PERFORMANCE - DISTRICT HEATING' invalid Variable or Meter Name 'INTERIORLIGHTS:DISTRICTHEATING'\n   ** Warning ** In Output:Table:Monthly 'BUILDING ENERGY PERFORMANCE - DISTRICT HEATING' invalid Variable or Meter Name 'EXTERIORLIGHTS:DISTRICTHEATING'\n   ** Warning ** In Output:Table:Monthly 'BUILDING ENERGY PERFORMANCE - DISTRICT HEATING' invalid Variable or Meter Name 'INTERIOREQUIPMENT:DISTRICTHEATING'\n   ** Warning ** In Output:Table:Monthly 'BUILDING ENERGY PERFORMANCE - DISTRICT HEATING' invalid Variable or Meter Name 'EXTERIOREQUIPMENT:DISTRICTHEATING'\n   ** Warning ** In Output:Table:Monthly 'BUILDING ENERGY PERFORMANCE - DISTRICT HEATING' invalid Variable or Meter Name 'FANS:DISTRICTHEATING'\n   ** Warning ** In Output:Table:Monthly 'BUILDING ENERGY PERFORMANCE - DISTRICT HEATING' invalid Variable or Meter Name 'PUMPS:DISTRICTHEATING'\n   ** Warning ** In Output:Table:Monthly 'BUILDING ENERGY PERFORMANCE - DISTRICT HEATING' invalid Variable or Meter Name 'HEATING:DISTRICTHEATING'\n   ** Warning ** In Output:Table:Monthly 'BUILDING ENERGY PERFORMANCE - DISTRICT HEATING' invalid Variable or Meter Name 'COOLING:DISTRICTHEATING'\n   ** Warning ** In Output:Table:Monthly 'BUILDING ENERGY PERFORMANCE - DISTRICT HEATING' invalid Variable or Meter Name 'HEATREJECTION:DISTRICTHEATING'\n   ** Warning ** In Output:Table:Monthly 'BUILDING ENERGY PERFORMANCE - DISTRICT HEATING' invalid Variable or Meter Name 'HUMIDIFIER:DISTRICTHEATING'\n   ** Warning ** In Output:Table:Monthly 'BUILDING ENERGY PERFORMANCE - DISTRICT HEATING' invalid Variable or Meter Name 'HEATRECOVERY:DISTRICTHEATING'\n   ** Warning ** In Output:Table:Monthly 'BUILDING ENERGY PERFORMANCE - DISTRICT HEATING' invalid Variable or Meter Name 'WATERSYSTEMS:DISTRICTHEATING'\n   ** Warning ** In Output:Table:Monthly 'BUILDING ENERGY PERFORMANCE - DISTRICT HEATING' invalid Variable or Meter Name 'COGENERATION:DISTRICTHEATING'\n   ** Warning ** In Output:Table:Monthly 'BUILDING ENERGY PERFORMANCE - DISTRICT COOLING' invalid Variable or Meter Name 'INTERIORLIGHTS:DISTRICTCOOLING'\n   ** Warning ** In Output:Table:Monthly 'BUILDING ENERGY PERFORMANCE - DISTRICT COOLING' invalid Variable or Meter Name 'EXTERIORLIGHTS:DISTRICTCOOLING'\n   ** Warning ** In Output:Table:Monthly 'BUILDING ENERGY PERFORMANCE - DISTRICT COOLING' invalid Variable or Meter Name 'INTERIOREQUIPMENT:DISTRICTCOOLING'\n   ** Warning ** In Output:Table:Monthly 'BUILDING ENERGY PERFORMANCE - DISTRICT COOLING' invalid Variable or Meter Name 'EXTERIOREQUIPMENT:DISTRICTCOOLING'\n   ** Warning ** In Output:Table:Monthly 'BUILDING ENERGY PERFORMANCE - DISTRICT COOLING' invalid Variable or Meter Name 'FANS:DISTRICTCOOLING'\n   ** Warning ** In Output:Table:Monthly 'BUILDING ENERGY PERFORMANCE - DISTRICT COOLING' invalid Variable or Meter Name 'PUMPS:DISTRICTCOOLING'\n   ** Warning ** In Output:Table:Monthly 'BUILDING ENERGY PERFORMANCE - DISTRICT COOLING' invalid Variable or Meter Name 'HEATING:DISTRICTCOOLING'\n   ** Warning ** In Output:Table:Monthly 'BUILDING ENERGY PERFORMANCE - DISTRICT COOLING' invalid Variable or Meter Name 'COOLING:DISTRICTCOOLING'\n   ** Warning ** In Output:Table:Monthly 'BUILDING ENERGY PERFORMANCE - DISTRICT COOLING' invalid Variable or Meter Name 'HEATREJECTION:DISTRICTCOOLING'\n   ** Warning ** In Output:Table:Monthly 'BUILDING ENERGY PERFORMANCE - DISTRICT COOLING' invalid Variable or Meter Name 'HUMIDIFIER:DISTRICTCOOLING'\n   ** Warning ** In Output:Table:Monthly 'BUILDING ENERGY PERFORMANCE - DISTRICT COOLING' invalid Variable or Meter Name 'HEATRECOVERY:DISTRICTCOOLING'\n   ** Warning ** In Output:Table:Monthly 'BUILDING ENERGY PERFORMANCE - DISTRICT COOLING' invalid Variable or Meter Name 'WATERSYSTEMS:DISTRICTCOOLING'\n   ** Warning ** In Output:Table:Monthly 'BUILDING ENERGY PERFORMANCE - DISTRICT COOLING' invalid Variable or Meter Name 'COGENERATION:DISTRICTCOOLING'\n   ** Warning ** In Output:Table:Monthly 'BUILDING ENERGY PERFORMANCE - ELECTRICITY PEAK DEMAND' invalid Variable or Meter Name 'HEATREJECTION:ELECTRICITY'\n   ** Warning ** In Output:Table:Monthly 'BUILDING ENERGY PERFORMANCE - ELECTRICITY PEAK DEMAND' invalid Variable or Meter Name 'HUMIDIFIER:ELECTRICITY'\n   ** Warning ** In Output:Table:Monthly 'BUILDING ENERGY PERFORMANCE - ELECTRICITY PEAK DEMAND' invalid Variable or Meter Name 'COGENERATION:ELECTRICITY'\n   ** Warning ** In Output:Table:Monthly 'BUILDING ENERGY PERFORMANCE - NATURAL GAS PEAK DEMAND' invalid Variable or Meter Name 'EXTERIOREQUIPMENT:NATURALGAS'\n   ** Warning ** In Output:Table:Monthly 'BUILDING ENERGY PERFORMANCE - NATURAL GAS PEAK DEMAND' invalid Variable or Meter Name 'COOLING:NATURALGAS'\n   ** Warning ** In Output:Table:Monthly 'BUILDING ENERGY PERFORMANCE - NATURAL GAS PEAK DEMAND' invalid Variable or Meter Name 'COGENERATION:NATURALGAS'\n   ** Warning ** In Output:Table:Monthly 'BUILDING ENERGY PERFORMANCE - DISTRICT HEATING PEAK DEMAND' invalid Variable or Meter Name 'DISTRICTHEATING:FACILITY'\n   ** Warning ** In Output:Table:Monthly 'BUILDING ENERGY PERFORMANCE - DISTRICT HEATING PEAK DEMAND' invalid Variable or Meter Name 'INTERIORLIGHTS:DISTRICTHEATING'\n   ** Warning ** In Output:Table:Monthly 'BUILDING ENERGY PERFORMANCE - DISTRICT HEATING PEAK DEMAND' invalid Variable or Meter Name 'EXTERIORLIGHTS:DISTRICTHEATING'\n   ** Warning ** In Output:Table:Monthly 'BUILDING ENERGY PERFORMANCE - DISTRICT HEATING PEAK DEMAND' invalid Variable or Meter Name 'INTERIOREQUIPMENT:DISTRICTHEATING'\n   ** Warning ** In Output:Table:Monthly 'BUILDING ENERGY PERFORMANCE - DISTRICT HEATING PEAK DEMAND' invalid Variable or Meter Name 'EXTERIOREQUIPMENT:DISTRICTHEATING'\n   ** Warning ** In Output:Table:Monthly 'BUILDING ENERGY PERFORMANCE - DISTRICT HEATING PEAK DEMAND' invalid Variable or Meter Name 'FANS:DISTRICTHEATING'\n   ** Warning ** In Output:Table:Monthly 'BUILDING ENERGY PERFORMANCE - DISTRICT HEATING PEAK DEMAND' invalid Variable or Meter Name 'PUMPS:DISTRICTHEATING'\n   ** Warning ** In Output:Table:Monthly 'BUILDING ENERGY PERFORMANCE - DISTRICT HEATING PEAK DEMAND' invalid Variable or Meter Name 'HEATING:DISTRICTHEATING'\n   ** Warning ** In Output:Table:Monthly 'BUILDING ENERGY PERFORMANCE - DISTRICT HEATING PEAK DEMAND' invalid Variable or Meter Name 'COOLING:DISTRICTHEATING'\n   ** Warning ** In Output:Table:Monthly 'BUILDING ENERGY PERFORMANCE - DISTRICT HEATING PEAK DEMAND' invalid Variable or Meter Name 'HEATREJECTION:DISTRICTHEATING'\n   ** Warning ** In Output:Table:Monthly 'BUILDING ENERGY PERFORMANCE - DISTRICT HEATING PEAK DEMAND' invalid Variable or Meter Name 'HUMIDIFIER:DISTRICTHEATING'\n   ** Warning ** In Output:Table:Monthly 'BUILDING ENERGY PERFORMANCE - DISTRICT HEATING PEAK DEMAND' invalid Variable or Meter Name 'HEATRECOVERY:DISTRICTHEATING'\n   ** Warning ** In Output:Table:Monthly 'BUILDING ENERGY PERFORMANCE - DISTRICT HEATING PEAK DEMAND' invalid Variable or Meter Name 'WATERSYSTEMS:DISTRICTHEATING'\n   ** Warning ** In Output:Table:Monthly 'BUILDING ENERGY PERFORMANCE - DISTRICT HEATING PEAK DEMAND' invalid Variable or Meter Name 'COGENERATION:DISTRICTHEATING'\n   ** Warning ** In Output:Table:Monthly 'BUILDING ENERGY PERFORMANCE - DISTRICT COOLING PEAK DEMAND' invalid Variable or Meter Name 'DISTRICTCOOLING:FACILITY'\n   ** Warning ** In Output:Table:Monthly 'BUILDING ENERGY PERFORMANCE - DISTRICT COOLING PEAK DEMAND' invalid Variable or Meter Name 'INTERIORLIGHTS:DISTRICTCOOLING'\n   ** Warning ** In Output:Table:Monthly 'BUILDING ENERGY PERFORMANCE - DISTRICT COOLING PEAK DEMAND' invalid Variable or Meter Name 'EXTERIORLIGHTS:DISTRICTCOOLING'\n   ** Warning ** In Output:Table:Monthly 'BUILDING ENERGY PERFORMANCE - DISTRICT COOLING PEAK DEMAND' invalid Variable or Meter Name 'INTERIOREQUIPMENT:DISTRICTCOOLING'\n   ** Warning ** In Output:Table:Monthly 'BUILDING ENERGY PERFORMANCE - DISTRICT COOLING PEAK DEMAND' invalid Variable or Meter Name 'EXTERIOREQUIPMENT:DISTRICTCOOLING'\n   ** Warning ** In Output:Table:Monthly 'BUILDING ENERGY PERFORMANCE - DISTRICT COOLING PEAK DEMAND' invalid Variable or Meter Name 'FANS:DISTRICTCOOLING'\n   ** Warning ** In Output:Table:Monthly 'BUILDING ENERGY PERFORMANCE - DISTRICT COOLING PEAK DEMAND' invalid Variable or Meter Name 'PUMPS:DISTRICTCOOLING'\n   ** Warning ** In Output:Table:Monthly 'BUILDING ENERGY PERFORMANCE - DISTRICT COOLING PEAK DEMAND' invalid Variable or Meter Name 'HEATING:DISTRICTCOOLING'\n   ** Warning ** In Output:Table:Monthly 'BUILDING ENERGY PERFORMANCE - DISTRICT COOLING PEAK DEMAND' invalid Variable or Meter Name 'COOLING:DISTRICTCOOLING'\n   ** Warning ** In Output:Table:Monthly 'BUILDING ENERGY PERFORMANCE - DISTRICT COOLING PEAK DEMAND' invalid Variable or Meter Name 'HEATREJECTION:DISTRICTCOOLING'\n   ** Warning ** In Output:Table:Monthly 'BUILDING ENERGY PERFORMANCE - DISTRICT COOLING PEAK DEMAND' invalid Variable or Meter Name 'HUMIDIFIER:DISTRICTCOOLING'\n   ** Warning ** In Output:Table:Monthly 'BUILDING ENERGY PERFORMANCE - DISTRICT COOLING PEAK DEMAND' invalid Variable or Meter Name 'HEATRECOVERY:DISTRICTCOOLING'\n   ** Warning ** In Output:Table:Monthly 'BUILDING ENERGY PERFORMANCE - DISTRICT COOLING PEAK DEMAND' invalid Variable or Meter Name 'WATERSYSTEMS:DISTRICTCOOLING'\n   ** Warning ** In Output:Table:Monthly 'BUILDING ENERGY PERFORMANCE - DISTRICT COOLING PEAK DEMAND' invalid Variable or Meter Name 'COGENERATION:DISTRICTCOOLING'\n   ** Warning ** Processing Monthly Tabular Reports: Variable names not valid for this simulation\n   **   ~~~   ** ...use Output:Diagnostics,DisplayExtraWarnings; to show more details on individual variables.\n   ** Warning ** CalcEquipmentFlowRates: \"BOOSTER WATER FIXTURE - 1.0 GPM AT 180F\" - Target water temperature is greater than the hot water temperature (15.90 C)\n   **   ~~~   **  Environment=RUN PERIOD 1, at Simulation time=01/02 08:00 - 08:10\n   **   ~~~   ** ...target water temperature       = 82.22 C\n   **   ~~~   ** ...hot water temperature       = 66.32 C\n   **   ~~~   ** ...Note: target water temperature should be less than or equal to the hot water temperature\n   **   ~~~   ** ...Target water temperature should be less than or equal to the hot water temperature. Verify temperature setpoints and schedules.\n   ** Warning ** CalcEquipmentFlowRates: \"MAIN SERVICE WATER USE 1.7GPM AT 140F\" - Target water temperature is greater than the hot water temperature (0.96 C)\n   **   ~~~   **  Environment=RUN PERIOD 1, at Simulation time=01/02 08:00 - 08:10\n   **   ~~~   ** ...target water temperature       = 60.00 C\n   **   ~~~   ** ...hot water temperature       = 59.04 C\n   **   ~~~   ** ...Note: target water temperature should be less than or equal to the hot water temperature\n   **   ~~~   ** ...Target water temperature should be less than or equal to the hot water temperature. Verify temperature setpoints and schedules.\n   ** Warning ** In zone BATH_ZN_1_FLR_1 ZN there is unbalanced air flow. Load due to induced outdoor air is neglected.\n   **   ~~~   **  Environment=RUN PERIOD 1, at Simulation time=01/03 10:50 - 11:00\n   **   ~~~   **   Flows [m3/s]: Inlets: 0.148972  Unbalanced exhausts: 0.283168  Returns: 0.000000\n   **   ~~~   **   Infiltration: 1.575796E-003  Zone Ventilation: 0.000000  Mixing (incoming): 0.000000\n   **   ~~~   **   Imbalance (excess outflow): 0.132621  Total system OA flow (for all airloops serving this zone): 4.577472\n   **   ~~~   **   This error will only be reported once per zone.\n   ** Warning ** HeatExchanger:AirToAir:SensibleAndLatent \"CAFETERIA_ZN_1_FLR_1 ZN PSZ-AC_2-7 ERV\"\n   **   ~~~   ** Average air volume flow rate is <50% or >130% of the nominal HX supply air volume flow rate.\n   **   ~~~   ** Air volume flow rate ratio = 0.459. Environment=RUN PERIOD 1, at Simulation time=01/03 10:50 - 11:00\n   ** Warning ** In zone KITCHEN_ZN_1_FLR_1 ZN there is unbalanced air flow. Load due to induced outdoor air is neglected.\n   **   ~~~   **  Environment=RUN PERIOD 1, at Simulation time=01/03 12:40 - 12:50\n   **   ~~~   **   Flows [m3/s]: Inlets: 0.499466  Unbalanced exhausts: 0.538807  Returns: 0.000000\n   **   ~~~   **   Infiltration: 1.676441E-003  Zone Ventilation: 0.000000  Mixing (incoming): 0.000000\n   **   ~~~   **   Imbalance (excess outflow): 3.766431E-002  Total system OA flow (for all airloops serving this zone): 0.998932\n   **   ~~~   **   This error will only be reported once per zone.\n   ** Warning ** SimHVAC: Maximum iterations (20) exceeded for all HVAC loops, at RUN PERIOD 1, 04/05 13:00 - 13:10\n   **   ~~~   ** The solution for one or more of the Air Loop HVAC systems did not appear to converge\n   **   ~~~   ** ...use Output:Diagnostics,DisplayExtraWarnings; to show more details on each max iteration exceeded.\n   ** Warning ** SimHVAC: Maximum iterations (20) exceeded for all HVAC loops, at RUN PERIOD 1, 04/05 13:10 - 13:20\n   **   ~~~   ** The solution for one or more of the Air Loop HVAC systems did not appear to converge\n   ** Warning ** SimHVAC: Maximum iterations (20) exceeded for all HVAC loops, at RUN PERIOD 1, 04/05 13:20 - 13:30\n   **   ~~~   ** The solution for one or more of the Air Loop HVAC systems did not appear to converge\n   ** Warning ** SimHVAC: Maximum iterations (20) exceeded for all HVAC loops, at RUN PERIOD 1, 04/05 13:30 - 13:40\n   **   ~~~   ** The solution for one or more of the Air Loop HVAC systems did not appear to converge\n   ** Warning ** SimHVAC: Maximum iterations (20) exceeded for all HVAC loops, at RUN PERIOD 1, 04/05 13:40 - 13:50\n   **   ~~~   ** The solution for one or more of the Air Loop HVAC systems did not appear to converge\n   ** Warning ** SimHVAC: Maximum iterations (20) exceeded for all HVAC loops, at RUN PERIOD 1, 04/05 13:50 - 14:00\n   **   ~~~   ** The solution for one or more of the Air Loop HVAC systems did not appear to converge\n   ** Warning ** Entered Humidity Ratio invalid (PsyTwbFnTdbWPb)\n   **   ~~~   **  Routine=Unknown, Environment=RUN PERIOD 1, at Simulation time=04/26 11:50 - 12:00\n   **   ~~~   **  Dry-Bulb= -9.10 Humidity Ratio= -1.410E-002 Pressure= 100220.00\n   **   ~~~   ** Humidity Ratio= -1.4107E-002 ... Humidity Ratio set to .00001\n   ** Warning ** SimHVAC: Maximum iterations (20) exceeded for all HVAC loops, at RUN PERIOD 1, 05/01 10:50 - 11:00\n   **   ~~~   ** The solution for one or more of the Air Loop HVAC systems did not appear to converge\n   ** Warning ** SimHVAC: Maximum iterations (20) exceeded for all HVAC loops, at RUN PERIOD 1, 05/01 11:00 - 11:10\n   **   ~~~   ** The solution for one or more of the Air Loop HVAC systems did not appear to converge\n   ** Warning ** SimHVAC: Maximum iterations (20) exceeded for all HVAC loops, at RUN PERIOD 1, 05/01 11:10 - 11:20\n   **   ~~~   ** The solution for one or more of the Air Loop HVAC systems did not appear to converge\n   ** Warning ** SimHVAC: Maximum iterations (20) exceeded for all HVAC loops, at RUN PERIOD 1, 05/01 11:20 - 11:30\n   **   ~~~   ** The solution for one or more of the Air Loop HVAC systems did not appear to converge\n   ** Warning ** SimHVAC: Maximum iterations (20) exceeded for all HVAC loops, at RUN PERIOD 1, 05/01 11:30 - 11:40\n   **   ~~~   ** The solution for one or more of the Air Loop HVAC systems did not appear to converge\n   ** Warning ** SimHVAC: Maximum iterations (20) exceeded for all HVAC loops, at RUN PERIOD 1, 05/01 11:40 - 11:50\n   **   ~~~   ** The solution for one or more of the Air Loop HVAC systems did not appear to converge\n   ** Warning ** SimHVAC: Maximum iterations (20) exceeded for all HVAC loops, at RUN PERIOD 1, 05/01 11:50 - 12:00\n   **   ~~~   ** The solution for one or more of the Air Loop HVAC systems did not appear to converge\n   ** Warning ** SimHVAC: Maximum iterations (20) exceeded for all HVAC loops, at RUN PERIOD 1, 05/01 12:00 - 12:10\n   **   ~~~   ** The solution for one or more of the Air Loop HVAC systems did not appear to converge\n   ** Severe  ** CheckAirLoopFlowBalance: AirLoopHVAC KITCHEN_ZN_1_FLR_1 ZN PSZ-AC_1-6 is unbalanced. Supply is > return plus outdoor air.\n   **   ~~~   **  Environment=RUN PERIOD 1, at Simulation time=08/18 19:20 - 19:30\n   **   ~~~   **   Flows [m3/s at standard density]: Supply=0.521730  Return=0.000000  Outdoor Air=0.499466\n   **   ~~~   **   Imbalance=2.226445E-002\n   **   ~~~   **   This error will only be reported once per system.\n   ** Warning ** The resource referenced by LifeCycleCost:UsePriceEscalation= \"U.S. AVG  COMMERCIAL-ELECTRICITY\" has no energy cost. \n   **   ~~~   ** ... It is likely that the wrong resource is used. The resource should match the meter used in Utility:Tariff.\n   ** Warning ** The resource referenced by LifeCycleCost:UsePriceEscalation= \"U.S. AVG  COMMERCIAL-DISTILLATE OIL\" has no energy cost. \n   **   ~~~   ** ... It is likely that the wrong resource is used. The resource should match the meter used in Utility:Tariff.\n   ** Warning ** The resource referenced by LifeCycleCost:UsePriceEscalation= \"U.S. AVG  COMMERCIAL-RESIDUAL OIL\" has no energy cost. \n   **   ~~~   ** ... It is likely that the wrong resource is used. The resource should match the meter used in Utility:Tariff.\n   ** Warning ** The resource referenced by LifeCycleCost:UsePriceEscalation= \"U.S. AVG  COMMERCIAL-NATURAL GAS\" has no energy cost. \n   **   ~~~   ** ... It is likely that the wrong resource is used. The resource should match the meter used in Utility:Tariff.\n   ** Warning ** The resource referenced by LifeCycleCost:UsePriceEscalation= \"U.S. AVG  COMMERCIAL-COAL\" has no energy cost. \n   **   ~~~   ** ... It is likely that the wrong resource is used. The resource should match the meter used in Utility:Tariff.\n   ************* Simulation Error Summary *************\n   ** Warning ** The following Report Variables were requested but not generated -- check.rdd file\n   **   ~~~   ** Either the IDF did not contain these elements, the variable name is misspelled,\n   **   ~~~   ** or the requested variable is an advanced output which requires Output : Diagnostics, DisplayAdvancedReportVariables;\n   ************* Key=bath_zn_1_flr_1 zn_Zone_Air, VarName=SYSTEM NODE HUMIDITY RATIO, Frequency=TimeStep\n   ************* Key=cafeteria_zn_1_flr_1 zn_Zone_Air, VarName=SYSTEM NODE HUMIDITY RATIO, Frequency=TimeStep\n   ************* Key=computer_class_zn_1_flr_1 zn_Zone_Air, VarName=SYSTEM NODE HUMIDITY RATIO, Frequency=TimeStep\n   ************* Key=corner_class_1_pod_1_zn_1_flr_1 zn_Zone_Air, VarName=SYSTEM NODE HUMIDITY RATIO, Frequency=TimeStep\n   ************* Key=corner_class_1_pod_2_zn_1_flr_1 zn_Zone_Air, VarName=SYSTEM NODE HUMIDITY RATIO, Frequency=TimeStep\n   ************* Key=corner_class_1_pod_3_zn_1_flr_1 zn_Zone_Air, VarName=SYSTEM NODE HUMIDITY RATIO, Frequency=TimeStep\n   ************* Key=corner_class_2_pod_1_zn_1_flr_1 zn_Zone_Air, VarName=SYSTEM NODE HUMIDITY RATIO, Frequency=TimeStep\n   ************* Key=corner_class_2_pod_2_zn_1_flr_1 zn_Zone_Air, VarName=SYSTEM NODE HUMIDITY RATIO, Frequency=TimeStep\n   ************* Key=corner_class_2_pod_3_zn_1_flr_1 zn_Zone_Air, VarName=SYSTEM NODE HUMIDITY RATIO, Frequency=TimeStep\n   ************* Key=corridor_pod_1_zn_1_flr_1 zn_Zone_Air, VarName=SYSTEM NODE HUMIDITY RATIO, Frequency=TimeStep\n   ************* Key=corridor_pod_2_zn_1_flr_1 zn_Zone_Air, VarName=SYSTEM NODE HUMIDITY RATIO, Frequency=TimeStep\n   ************* Key=corridor_pod_3_zn_1_flr_1 zn_Zone_Air, VarName=SYSTEM NODE HUMIDITY RATIO, Frequency=TimeStep\n   ************* Key=gym_zn_1_flr_1 zn_Zone_Air, VarName=SYSTEM NODE HUMIDITY RATIO, Frequency=TimeStep\n   ************* Key=kitchen_zn_1_flr_1 zn_Zone_Air, VarName=SYSTEM NODE HUMIDITY RATIO, Frequency=TimeStep\n   ************* Key=library_media_center_zn_1_flr_1 zn_Zone_Air, VarName=SYSTEM NODE HUMIDITY RATIO, Frequency=TimeStep\n   ************* Key=lobby_zn_1_flr_1 zn_Zone_Air, VarName=SYSTEM NODE HUMIDITY RATIO, Frequency=TimeStep\n   ************* Key=main_corridor_zn_1_flr_1 zn_Zone_Air, VarName=SYSTEM NODE HUMIDITY RATIO, Frequency=TimeStep\n   ************* Key=mech_zn_1_flr_1 zn_Zone_Air, VarName=SYSTEM NODE HUMIDITY RATIO, Frequency=TimeStep\n   ************* Key=mult_class_1_pod_1_zn_1_flr_1 zn_Zone_Air, VarName=SYSTEM NODE HUMIDITY RATIO, Frequency=TimeStep\n   ************* Key=mult_class_1_pod_2_zn_1_flr_1 zn_Zone_Air, VarName=SYSTEM NODE HUMIDITY RATIO, Frequency=TimeStep\n   ************* Key=mult_class_1_pod_3_zn_1_flr_1 zn_Zone_Air, VarName=SYSTEM NODE HUMIDITY RATIO, Frequency=TimeStep\n   ************* Key=mult_class_2_pod_1_zn_1_flr_1 zn_Zone_Air, VarName=SYSTEM NODE HUMIDITY RATIO, Frequency=TimeStep\n   ************* Key=mult_class_2_pod_2_zn_1_flr_1 zn_Zone_Air, VarName=SYSTEM NODE HUMIDITY RATIO, Frequency=TimeStep\n   ************* Key=mult_class_2_pod_3_zn_1_flr_1 zn_Zone_Air, VarName=SYSTEM NODE HUMIDITY RATIO, Frequency=TimeStep\n   ************* Key=offices_zn_1_flr_1 zn_Zone_Air, VarName=SYSTEM NODE HUMIDITY RATIO, Frequency=TimeStep\n   ************* There are 4 unused schedules in input.\n   ************* There are 4 unused week schedules in input.\n   ************* There are 11 unused day schedules in input.\n   ************* Use Output:Diagnostics,DisplayUnusedSchedules; to see them.\n   *************\n   ************* ===== Recurring Error Summary =====\n   ************* The following recurring error messages occurred.\n   *************\n   *************  ** Warning ** \"BOOSTER WATER FIXTURE - 1.0 GPM AT 180F\" - Target water temperature should be less than or equal to the hot water temperature error continues...\n   *************  **   ~~~   **   This error occurred 259541 total times;\n   *************  **   ~~~   **   during Warmup 0 times;\n   *************  **   ~~~   **   during Sizing 0 times.\n   *************  **   ~~~   **   Max=23.569988  Min=0.324822\n   *************\n   *************  ** Warning ** \"MAIN SERVICE WATER USE 1.7GPM AT 140F\" - Target water temperature should be less than or equal to the hot water temperature error continues...\n   *************  **   ~~~   **   This error occurred 259541 total times;\n   *************  **   ~~~   **   during Warmup 0 times;\n   *************  **   ~~~   **   during Sizing 0 times.\n   *************  **   ~~~   **   Max=1.865788  Min=0.384115\n   *************\n   *************  ** Warning ** HeatExchanger:AirToAir:SensibleAndLatent \"CAFETERIA_ZN_1_FLR_1 ZN PSZ-AC_2-7 ERV\":  Average air volume flow rate is <50% or >130% warning continues. Air flow rate ratio statistics follow.\n   *************  **   ~~~   **   This error occurred 151199 total times;\n   *************  **   ~~~   **   during Warmup 0 times;\n   *************  **   ~~~   **   during Sizing 0 times.\n   *************  **   ~~~   **   Max=1.341656  Min=9.284380E-004\n   *************\n   *************  ** Warning ** Entered Humidity Ratio invalid (PsyTwbFnTdbWPb)\n   *************  **   ~~~   **   This error occurred 3 total times;\n   *************  **   ~~~   **   during Warmup 0 times;\n   *************  **   ~~~   **   during Sizing 0 times.\n   *************  **   ~~~   **   Max=-6.322525E-004 []  Min=-1.410726E-002 []\n   *************\n   *************  ** Warning ** SimHVAC: Exceeding Maximum iterations for all HVAC loops, during RUN PERIOD 1 continues\n   *************  **   ~~~   **   This error occurred 395 total times;\n   *************  **   ~~~   **   during Warmup 0 times;\n   *************  **   ~~~   **   during Sizing 0 times.\n   *************\n   *************\n   ************* ===== Final Error Summary =====\n   ************* The following error categories occurred.  Consider correcting or noting.\n   ************* Nominally Unused Constructions\n   ************* ..The nominally unused constructions warning is provided to alert you to potential conditions that can cause\n   ************* ..extra time during simulation. Each construction is calculated by the algorithm indicated in the HeatBalanceAlgorithm\n   ************* ..object. You may remove the constructions indicated (when you use the DisplayExtraWarnings option).\n   *************\n   ************* EnergyPlus Warmup Error Summary. During Warmup: 0 Warning; 0 Severe Errors.\n   ************* EnergyPlus Sizing Error Summary. During Sizing: 102 Warning; 0 Severe Errors.\n   ************* EnergyPlus Completed Successfully-- 670884 Warning; 1 Severe Errors; Elapsed Time=00hr 01min 35.51sec\n",
   "file_paths" : 
   [
      "/Users/tmarzull/Documents/BRICK/working/alfalfa/ostest/with_ep2brick/primaryschool/generated_files",
      "./files/",
      "./files",
      "./weather",
      "../../files",
      "../../weather",
      "./"
   ],
   "hash" : "328503B4",
   "measure_paths" : 
   [
      "./measures/"
   ],
   "run_directory" : "./run/",
   "seed_file" : "../primaryschool.osm",
   "started_at" : "20230410T201918Z",
   "steps" : 
   [
      {
         "arguments" : {},
         "description" : "This method adds inputs and outputs for Alfalfa and generates a metadata model that follows the BRICK ontology.",
         "measure_dir_name" : "add_alfalfa_io_from_brick",
         "modeler_description" : "",
         "name" : "Add IO for alfalfa from BRICK",
         "result" : 
         {
            "completed_at" : "20230410T201929Z",
            "measure_class_name" : "AddAlfalfaIOFromBRICK",
            "measure_display_name" : "Add IO for alfalfa from BRICK",
            "measure_name" : "add_alfalfa_io_from_brick",
            "measure_taxonomy" : "Whole Building.Space Types",
            "measure_type" : "ModelMeasure",
            "measure_uid" : "be90fd0b-a651-467a-bc8d-29d310b0f937",
            "measure_version_id" : "9f823e1b-a02c-48cf-8181-077a81e7e99b",
            "measure_version_modified" : "20221130T213052Z",
            "measure_xml_checksum" : "87C4F8A7",
            "started_at" : "20230410T201923Z",
            "stderr" : "",
            "stdout" : "",
            "step_errors" : [],
            "step_files" : [],
            "step_info" : 
            [
               "Created BRICK model for /Users/tmarzull/Documents/BRICK/working/alfalfa/ostest/with_ep2brick/primaryschool/measures/add_alfalfa_io_from_brick/resources/temp/initial.idf.",
               "Found 124 points in the EnergyPlus model",
               "Creating output for Add IO for alfalfa from BRICK",
               "cafeteria zn 1 flr 1 zn psz-ac 2-7 supply outlet node Temperature Sensor has key cafeteria_zn_1_flr_1 zn psz-ac_2-7 supply outlet node",
               "cafeteria_zn_1_flr_1 zn psz-ac_2-7 supply outlet node_Temperature_Sensor is a: Temperature_Sensor",
               "Creating output for Add IO for alfalfa from BRICK",
               "gym zn 1 flr 1 zn psz-ac 2-5 supply outlet node Temperature Sensor has key gym_zn_1_flr_1 zn psz-ac_2-5 supply outlet node",
               "gym_zn_1_flr_1 zn psz-ac_2-5 supply outlet node_Temperature_Sensor is a: Temperature_Sensor",
               "Creating output for Add IO for alfalfa from BRICK",
               "kitchen zn 1 flr 1 zn psz-ac 1-6 supply outlet node Temperature Sensor has key kitchen_zn_1_flr_1 zn psz-ac_1-6 supply outlet node",
               "kitchen_zn_1_flr_1 zn psz-ac_1-6 supply outlet node_Temperature_Sensor is a: Temperature_Sensor",
               "Creating output for Add IO for alfalfa from BRICK",
               "cafeteria zn 1 flr 1 zn psz-ac 2-7 supply outlet node Pressure Sensor has key cafeteria_zn_1_flr_1 zn psz-ac_2-7 supply outlet node",
               "cafeteria_zn_1_flr_1 zn psz-ac_2-7 supply outlet node_Pressure_Sensor is a: Pressure_Sensor",
               "Creating output for Add IO for alfalfa from BRICK",
               "gym zn 1 flr 1 zn psz-ac 2-5 supply outlet node Pressure Sensor has key gym_zn_1_flr_1 zn psz-ac_2-5 supply outlet node",
               "gym_zn_1_flr_1 zn psz-ac_2-5 supply outlet node_Pressure_Sensor is a: Pressure_Sensor",
               "Creating output for Add IO for alfalfa from BRICK",
               "kitchen zn 1 flr 1 zn psz-ac 1-6 supply outlet node Pressure Sensor has key kitchen_zn_1_flr_1 zn psz-ac_1-6 supply outlet node",
               "kitchen_zn_1_flr_1 zn psz-ac_1-6 supply outlet node_Pressure_Sensor is a: Pressure_Sensor",
               "Creating output for Add IO for alfalfa from BRICK",
               "cafeteria zn 1 flr 1 zn psz-ac 2-7 supply outlet node Humidity Sensor has key cafeteria_zn_1_flr_1 zn psz-ac_2-7 supply outlet node",
               "cafeteria_zn_1_flr_1 zn psz-ac_2-7 supply outlet node_Humidity_Sensor is a: Humidity_Sensor",
               "Creating output for Add IO for alfalfa from BRICK",
               "gym zn 1 flr 1 zn psz-ac 2-5 supply outlet node Humidity Sensor has key gym_zn_1_flr_1 zn psz-ac_2-5 supply outlet node",
               "gym_zn_1_flr_1 zn psz-ac_2-5 supply outlet node_Humidity_Sensor is a: Humidity_Sensor",
               "Creating output for Add IO for alfalfa from BRICK",
               "kitchen zn 1 flr 1 zn psz-ac 1-6 supply outlet node Humidity Sensor has key kitchen_zn_1_flr_1 zn psz-ac_1-6 supply outlet node",
               "kitchen_zn_1_flr_1 zn psz-ac_1-6 supply outlet node_Humidity_Sensor is a: Humidity_Sensor",
               "Creating output for Add IO for alfalfa from BRICK",
               "cafeteria zn 1 flr 1 zn psz-ac 2-7 supply outlet node Air Flow Sensor has key cafeteria_zn_1_flr_1 zn psz-ac_2-7 supply outlet node",
               "cafeteria_zn_1_flr_1 zn psz-ac_2-7 supply outlet node_Air_Flow_Sensor is a: Air_Flow_Sensor",
               "Creating output for Add IO for alfalfa from BRICK",
               "gym zn 1 flr 1 zn psz-ac 2-5 supply outlet node Air Flow Sensor has key gym_zn_1_flr_1 zn psz-ac_2-5 supply outlet node",
               "gym_zn_1_flr_1 zn psz-ac_2-5 supply outlet node_Air_Flow_Sensor is a: Air_Flow_Sensor",
               "Creating output for Add IO for alfalfa from BRICK",
               "kitchen zn 1 flr 1 zn psz-ac 1-6 supply outlet node Air Flow Sensor has key kitchen_zn_1_flr_1 zn psz-ac_1-6 supply outlet node",
               "kitchen_zn_1_flr_1 zn psz-ac_1-6 supply outlet node_Air_Flow_Sensor is a: Air_Flow_Sensor",
               "Creating output for Add IO for alfalfa from BRICK",
               "cafeteria zn 1 flr 1 zn psz-ac 2-7 supply outlet node Enthalpy Sensor has key cafeteria_zn_1_flr_1 zn psz-ac_2-7 supply outlet node",
               "cafeteria_zn_1_flr_1 zn psz-ac_2-7 supply outlet node_Enthalpy_Sensor is a: Enthalpy_Sensor",
               "Creating output for Add IO for alfalfa from BRICK",
               "gym zn 1 flr 1 zn psz-ac 2-5 supply outlet node Enthalpy Sensor has key gym_zn_1_flr_1 zn psz-ac_2-5 supply outlet node",
               "gym_zn_1_flr_1 zn psz-ac_2-5 supply outlet node_Enthalpy_Sensor is a: Enthalpy_Sensor",
               "Creating output for Add IO for alfalfa from BRICK",
               "kitchen zn 1 flr 1 zn psz-ac 1-6 supply outlet node Enthalpy Sensor has key kitchen_zn_1_flr_1 zn psz-ac_1-6 supply outlet node",
               "kitchen_zn_1_flr_1 zn psz-ac_1-6 supply outlet node_Enthalpy_Sensor is a: Enthalpy_Sensor",
               "Creating output for Add IO for alfalfa from BRICK",
               "bath zn 1 flr 1 zn Zone Air Temperature Sensor has key bath_zn_1_flr_1 zn",
               "bath_zn_1_flr_1 zn_Zone_Air_Temperature_Sensor is a: Zone_Air_Temperature_Sensor",
               "Creating output for Add IO for alfalfa from BRICK",
               "cafeteria zn 1 flr 1 zn Zone Air Temperature Sensor has key cafeteria_zn_1_flr_1 zn",
               "cafeteria_zn_1_flr_1 zn_Zone_Air_Temperature_Sensor is a: Zone_Air_Temperature_Sensor",
               "Creating output for Add IO for alfalfa from BRICK",
               "computer class zn 1 flr 1 zn Zone Air Temperature Sensor has key computer_class_zn_1_flr_1 zn",
               "computer_class_zn_1_flr_1 zn_Zone_Air_Temperature_Sensor is a: Zone_Air_Temperature_Sensor",
               "Creating output for Add IO for alfalfa from BRICK",
               "corner class 1 pod 1 zn 1 flr 1 zn Zone Air Temperature Sensor has key corner_class_1_pod_1_zn_1_flr_1 zn",
               "corner_class_1_pod_1_zn_1_flr_1 zn_Zone_Air_Temperature_Sensor is a: Zone_Air_Temperature_Sensor",
               "Creating output for Add IO for alfalfa from BRICK",
               "corner class 1 pod 2 zn 1 flr 1 zn Zone Air Temperature Sensor has key corner_class_1_pod_2_zn_1_flr_1 zn",
               "corner_class_1_pod_2_zn_1_flr_1 zn_Zone_Air_Temperature_Sensor is a: Zone_Air_Temperature_Sensor",
               "Creating output for Add IO for alfalfa from BRICK",
               "corner class 1 pod 3 zn 1 flr 1 zn Zone Air Temperature Sensor has key corner_class_1_pod_3_zn_1_flr_1 zn",
               "corner_class_1_pod_3_zn_1_flr_1 zn_Zone_Air_Temperature_Sensor is a: Zone_Air_Temperature_Sensor",
               "Creating output for Add IO for alfalfa from BRICK",
               "corner class 2 pod 1 zn 1 flr 1 zn Zone Air Temperature Sensor has key corner_class_2_pod_1_zn_1_flr_1 zn",
               "corner_class_2_pod_1_zn_1_flr_1 zn_Zone_Air_Temperature_Sensor is a: Zone_Air_Temperature_Sensor",
               "Creating output for Add IO for alfalfa from BRICK",
               "corner class 2 pod 2 zn 1 flr 1 zn Zone Air Temperature Sensor has key corner_class_2_pod_2_zn_1_flr_1 zn",
               "corner_class_2_pod_2_zn_1_flr_1 zn_Zone_Air_Temperature_Sensor is a: Zone_Air_Temperature_Sensor",
               "Creating output for Add IO for alfalfa from BRICK",
               "corner class 2 pod 3 zn 1 flr 1 zn Zone Air Temperature Sensor has key corner_class_2_pod_3_zn_1_flr_1 zn",
               "corner_class_2_pod_3_zn_1_flr_1 zn_Zone_Air_Temperature_Sensor is a: Zone_Air_Temperature_Sensor",
               "Creating output for Add IO for alfalfa from BRICK",
               "corridor pod 1 zn 1 flr 1 zn Zone Air Temperature Sensor has key corridor_pod_1_zn_1_flr_1 zn",
               "corridor_pod_1_zn_1_flr_1 zn_Zone_Air_Temperature_Sensor is a: Zone_Air_Temperature_Sensor",
               "Creating output for Add IO for alfalfa from BRICK",
               "corridor pod 2 zn 1 flr 1 zn Zone Air Temperature Sensor has key corridor_pod_2_zn_1_flr_1 zn",
               "corridor_pod_2_zn_1_flr_1 zn_Zone_Air_Temperature_Sensor is a: Zone_Air_Temperature_Sensor",
               "Creating output for Add IO for alfalfa from BRICK",
               "corridor pod 3 zn 1 flr 1 zn Zone Air Temperature Sensor has key corridor_pod_3_zn_1_flr_1 zn",
               "corridor_pod_3_zn_1_flr_1 zn_Zone_Air_Temperature_Sensor is a: Zone_Air_Temperature_Sensor",
               "Creating output for Add IO for alfalfa from BRICK",
               "gym zn 1 flr 1 zn Zone Air Temperature Sensor has key gym_zn_1_flr_1 zn",
               "gym_zn_1_flr_1 zn_Zone_Air_Temperature_Sensor is a: Zone_Air_Temperature_Sensor",
               "Creating output for Add IO for alfalfa from BRICK",
               "kitchen zn 1 flr 1 zn Zone Air Temperature Sensor has key kitchen_zn_1_flr_1 zn",
               "kitchen_zn_1_flr_1 zn_Zone_Air_Temperature_Sensor is a: Zone_Air_Temperature_Sensor",
               "Creating output for Add IO for alfalfa from BRICK",
               "library media center zn 1 flr 1 zn Zone Air Temperature Sensor has key library_media_center_zn_1_flr_1 zn",
               "library_media_center_zn_1_flr_1 zn_Zone_Air_Temperature_Sensor is a: Zone_Air_Temperature_Sensor",
               "Creating output for Add IO for alfalfa from BRICK",
               "lobby zn 1 flr 1 zn Zone Air Temperature Sensor has key lobby_zn_1_flr_1 zn",
               "lobby_zn_1_flr_1 zn_Zone_Air_Temperature_Sensor is a: Zone_Air_Temperature_Sensor",
               "Creating output for Add IO for alfalfa from BRICK",
               "main corridor zn 1 flr 1 zn Zone Air Temperature Sensor has key main_corridor_zn_1_flr_1 zn",
               "main_corridor_zn_1_flr_1 zn_Zone_Air_Temperature_Sensor is a: Zone_Air_Temperature_Sensor",
               "Creating output for Add IO for alfalfa from BRICK",
               "mech zn 1 flr 1 zn Zone Air Temperature Sensor has key mech_zn_1_flr_1 zn",
               "mech_zn_1_flr_1 zn_Zone_Air_Temperature_Sensor is a: Zone_Air_Temperature_Sensor",
               "Creating output for Add IO for alfalfa from BRICK",
               "mult class 1 pod 1 zn 1 flr 1 zn Zone Air Temperature Sensor has key mult_class_1_pod_1_zn_1_flr_1 zn",
               "mult_class_1_pod_1_zn_1_flr_1 zn_Zone_Air_Temperature_Sensor is a: Zone_Air_Temperature_Sensor",
               "Creating output for Add IO for alfalfa from BRICK",
               "mult class 1 pod 2 zn 1 flr 1 zn Zone Air Temperature Sensor has key mult_class_1_pod_2_zn_1_flr_1 zn",
               "mult_class_1_pod_2_zn_1_flr_1 zn_Zone_Air_Temperature_Sensor is a: Zone_Air_Temperature_Sensor",
               "Creating output for Add IO for alfalfa from BRICK",
               "mult class 1 pod 3 zn 1 flr 1 zn Zone Air Temperature Sensor has key mult_class_1_pod_3_zn_1_flr_1 zn",
               "mult_class_1_pod_3_zn_1_flr_1 zn_Zone_Air_Temperature_Sensor is a: Zone_Air_Temperature_Sensor",
               "Creating output for Add IO for alfalfa from BRICK",
               "mult class 2 pod 1 zn 1 flr 1 zn Zone Air Temperature Sensor has key mult_class_2_pod_1_zn_1_flr_1 zn",
               "mult_class_2_pod_1_zn_1_flr_1 zn_Zone_Air_Temperature_Sensor is a: Zone_Air_Temperature_Sensor",
               "Creating output for Add IO for alfalfa from BRICK",
               "mult class 2 pod 2 zn 1 flr 1 zn Zone Air Temperature Sensor has key mult_class_2_pod_2_zn_1_flr_1 zn",
               "mult_class_2_pod_2_zn_1_flr_1 zn_Zone_Air_Temperature_Sensor is a: Zone_Air_Temperature_Sensor",
               "Creating output for Add IO for alfalfa from BRICK",
               "mult class 2 pod 3 zn 1 flr 1 zn Zone Air Temperature Sensor has key mult_class_2_pod_3_zn_1_flr_1 zn",
               "mult_class_2_pod_3_zn_1_flr_1 zn_Zone_Air_Temperature_Sensor is a: Zone_Air_Temperature_Sensor",
               "Creating output for Add IO for alfalfa from BRICK",
               "offices zn 1 flr 1 zn Zone Air Temperature Sensor has key offices_zn_1_flr_1 zn",
               "offices_zn_1_flr_1 zn_Zone_Air_Temperature_Sensor is a: Zone_Air_Temperature_Sensor",
               "Creating output for Add IO for alfalfa from BRICK",
               "bath zn 1 flr 1 zn Zone Air Humidity Sensor has key bath_zn_1_flr_1 zn_Zone_Air",
               "bath_zn_1_flr_1 zn_Zone_Air_Humidity_Sensor is a: Humidity_Sensor",
               "Creating output for Add IO for alfalfa from BRICK",
               "cafeteria zn 1 flr 1 zn Zone Air Humidity Sensor has key cafeteria_zn_1_flr_1 zn_Zone_Air",
               "cafeteria_zn_1_flr_1 zn_Zone_Air_Humidity_Sensor is a: Humidity_Sensor",
               "Creating output for Add IO for alfalfa from BRICK",
               "computer class zn 1 flr 1 zn Zone Air Humidity Sensor has key computer_class_zn_1_flr_1 zn_Zone_Air",
               "computer_class_zn_1_flr_1 zn_Zone_Air_Humidity_Sensor is a: Humidity_Sensor",
               "Creating output for Add IO for alfalfa from BRICK",
               "corner class 1 pod 1 zn 1 flr 1 zn Zone Air Humidity Sensor has key corner_class_1_pod_1_zn_1_flr_1 zn_Zone_Air",
               "corner_class_1_pod_1_zn_1_flr_1 zn_Zone_Air_Humidity_Sensor is a: Humidity_Sensor",
               "Creating output for Add IO for alfalfa from BRICK",
               "corner class 1 pod 2 zn 1 flr 1 zn Zone Air Humidity Sensor has key corner_class_1_pod_2_zn_1_flr_1 zn_Zone_Air",
               "corner_class_1_pod_2_zn_1_flr_1 zn_Zone_Air_Humidity_Sensor is a: Humidity_Sensor",
               "Creating output for Add IO for alfalfa from BRICK",
               "corner class 1 pod 3 zn 1 flr 1 zn Zone Air Humidity Sensor has key corner_class_1_pod_3_zn_1_flr_1 zn_Zone_Air",
               "corner_class_1_pod_3_zn_1_flr_1 zn_Zone_Air_Humidity_Sensor is a: Humidity_Sensor",
               "Creating output for Add IO for alfalfa from BRICK",
               "corner class 2 pod 1 zn 1 flr 1 zn Zone Air Humidity Sensor has key corner_class_2_pod_1_zn_1_flr_1 zn_Zone_Air",
               "corner_class_2_pod_1_zn_1_flr_1 zn_Zone_Air_Humidity_Sensor is a: Humidity_Sensor",
               "Creating output for Add IO for alfalfa from BRICK",
               "corner class 2 pod 2 zn 1 flr 1 zn Zone Air Humidity Sensor has key corner_class_2_pod_2_zn_1_flr_1 zn_Zone_Air",
               "corner_class_2_pod_2_zn_1_flr_1 zn_Zone_Air_Humidity_Sensor is a: Humidity_Sensor",
               "Creating output for Add IO for alfalfa from BRICK",
               "corner class 2 pod 3 zn 1 flr 1 zn Zone Air Humidity Sensor has key corner_class_2_pod_3_zn_1_flr_1 zn_Zone_Air",
               "corner_class_2_pod_3_zn_1_flr_1 zn_Zone_Air_Humidity_Sensor is a: Humidity_Sensor",
               "Creating output for Add IO for alfalfa from BRICK",
               "corridor pod 1 zn 1 flr 1 zn Zone Air Humidity Sensor has key corridor_pod_1_zn_1_flr_1 zn_Zone_Air",
               "corridor_pod_1_zn_1_flr_1 zn_Zone_Air_Humidity_Sensor is a: Humidity_Sensor",
               "Creating output for Add IO for alfalfa from BRICK",
               "corridor pod 2 zn 1 flr 1 zn Zone Air Humidity Sensor has key corridor_pod_2_zn_1_flr_1 zn_Zone_Air",
               "corridor_pod_2_zn_1_flr_1 zn_Zone_Air_Humidity_Sensor is a: Humidity_Sensor",
               "Creating output for Add IO for alfalfa from BRICK",
               "corridor pod 3 zn 1 flr 1 zn Zone Air Humidity Sensor has key corridor_pod_3_zn_1_flr_1 zn_Zone_Air",
               "corridor_pod_3_zn_1_flr_1 zn_Zone_Air_Humidity_Sensor is a: Humidity_Sensor",
               "Creating output for Add IO for alfalfa from BRICK",
               "gym zn 1 flr 1 zn Zone Air Humidity Sensor has key gym_zn_1_flr_1 zn_Zone_Air",
               "gym_zn_1_flr_1 zn_Zone_Air_Humidity_Sensor is a: Humidity_Sensor",
               "Creating output for Add IO for alfalfa from BRICK",
               "kitchen zn 1 flr 1 zn Zone Air Humidity Sensor has key kitchen_zn_1_flr_1 zn_Zone_Air",
               "kitchen_zn_1_flr_1 zn_Zone_Air_Humidity_Sensor is a: Humidity_Sensor",
               "Creating output for Add IO for alfalfa from BRICK",
               "library media center zn 1 flr 1 zn Zone Air Humidity Sensor has key library_media_center_zn_1_flr_1 zn_Zone_Air",
               "library_media_center_zn_1_flr_1 zn_Zone_Air_Humidity_Sensor is a: Humidity_Sensor",
               "Creating output for Add IO for alfalfa from BRICK",
               "lobby zn 1 flr 1 zn Zone Air Humidity Sensor has key lobby_zn_1_flr_1 zn_Zone_Air",
               "lobby_zn_1_flr_1 zn_Zone_Air_Humidity_Sensor is a: Humidity_Sensor",
               "Creating output for Add IO for alfalfa from BRICK",
               "main corridor zn 1 flr 1 zn Zone Air Humidity Sensor has key main_corridor_zn_1_flr_1 zn_Zone_Air",
               "main_corridor_zn_1_flr_1 zn_Zone_Air_Humidity_Sensor is a: Humidity_Sensor",
               "Creating output for Add IO for alfalfa from BRICK",
               "mech zn 1 flr 1 zn Zone Air Humidity Sensor has key mech_zn_1_flr_1 zn_Zone_Air",
               "mech_zn_1_flr_1 zn_Zone_Air_Humidity_Sensor is a: Humidity_Sensor",
               "Creating output for Add IO for alfalfa from BRICK",
               "mult class 1 pod 1 zn 1 flr 1 zn Zone Air Humidity Sensor has key mult_class_1_pod_1_zn_1_flr_1 zn_Zone_Air",
               "mult_class_1_pod_1_zn_1_flr_1 zn_Zone_Air_Humidity_Sensor is a: Humidity_Sensor",
               "Creating output for Add IO for alfalfa from BRICK",
               "mult class 1 pod 2 zn 1 flr 1 zn Zone Air Humidity Sensor has key mult_class_1_pod_2_zn_1_flr_1 zn_Zone_Air",
               "mult_class_1_pod_2_zn_1_flr_1 zn_Zone_Air_Humidity_Sensor is a: Humidity_Sensor",
               "Creating output for Add IO for alfalfa from BRICK",
               "mult class 1 pod 3 zn 1 flr 1 zn Zone Air Humidity Sensor has key mult_class_1_pod_3_zn_1_flr_1 zn_Zone_Air",
               "mult_class_1_pod_3_zn_1_flr_1 zn_Zone_Air_Humidity_Sensor is a: Humidity_Sensor",
               "Creating output for Add IO for alfalfa from BRICK",
               "mult class 2 pod 1 zn 1 flr 1 zn Zone Air Humidity Sensor has key mult_class_2_pod_1_zn_1_flr_1 zn_Zone_Air",
               "mult_class_2_pod_1_zn_1_flr_1 zn_Zone_Air_Humidity_Sensor is a: Humidity_Sensor",
               "Creating output for Add IO for alfalfa from BRICK",
               "mult class 2 pod 2 zn 1 flr 1 zn Zone Air Humidity Sensor has key mult_class_2_pod_2_zn_1_flr_1 zn_Zone_Air",
               "mult_class_2_pod_2_zn_1_flr_1 zn_Zone_Air_Humidity_Sensor is a: Humidity_Sensor",
               "Creating output for Add IO for alfalfa from BRICK",
               "mult class 2 pod 3 zn 1 flr 1 zn Zone Air Humidity Sensor has key mult_class_2_pod_3_zn_1_flr_1 zn_Zone_Air",
               "mult_class_2_pod_3_zn_1_flr_1 zn_Zone_Air_Humidity_Sensor is a: Humidity_Sensor",
               "Creating output for Add IO for alfalfa from BRICK",
               "offices zn 1 flr 1 zn Zone Air Humidity Sensor has key offices_zn_1_flr_1 zn_Zone_Air",
               "offices_zn_1_flr_1 zn_Zone_Air_Humidity_Sensor is a: Humidity_Sensor",
               "Creating input for cafeteria_zn_1_flr_1 zn psz-ac_2-7 supply outlet node_Temperature_Setpoint",
               "cafeteria_zn_1_flr_1 zn psz-ac_2-7 supply outlet node_Temperature_Setpoint is a: Temperature Setpoint",
               "Creating input for gym_zn_1_flr_1 zn psz-ac_2-5 supply outlet node_Temperature_Setpoint",
               "gym_zn_1_flr_1 zn psz-ac_2-5 supply outlet node_Temperature_Setpoint is a: Temperature Setpoint",
               "Creating input for kitchen_zn_1_flr_1 zn psz-ac_1-6 supply outlet node_Temperature_Setpoint",
               "kitchen_zn_1_flr_1 zn psz-ac_1-6 supply outlet node_Temperature_Setpoint is a: Temperature Setpoint",
               "Creating input for cafeteria_zn_1_flr_1 zn psz-ac_2-7 supply outlet node_Humidity_Setpoint",
               "cafeteria_zn_1_flr_1 zn psz-ac_2-7 supply outlet node_Humidity_Setpoint is a: Humidity Setpoint",
               "Creating input for gym_zn_1_flr_1 zn psz-ac_2-5 supply outlet node_Humidity_Setpoint",
               "gym_zn_1_flr_1 zn psz-ac_2-5 supply outlet node_Humidity_Setpoint is a: Humidity Setpoint",
               "Creating input for kitchen_zn_1_flr_1 zn psz-ac_1-6 supply outlet node_Humidity_Setpoint",
               "kitchen_zn_1_flr_1 zn psz-ac_1-6 supply outlet node_Humidity_Setpoint is a: Humidity Setpoint",
               "Creating input for cafeteria_zn_1_flr_1 zn psz-ac_2-7 supply outlet node_Air_Flow_Setpoint",
               "cafeteria_zn_1_flr_1 zn psz-ac_2-7 supply outlet node_Air_Flow_Setpoint is a: Air Flow Setpoint",
               "Creating input for gym_zn_1_flr_1 zn psz-ac_2-5 supply outlet node_Air_Flow_Setpoint",
               "gym_zn_1_flr_1 zn psz-ac_2-5 supply outlet node_Air_Flow_Setpoint is a: Air Flow Setpoint",
               "Creating input for kitchen_zn_1_flr_1 zn psz-ac_1-6 supply outlet node_Air_Flow_Setpoint",
               "kitchen_zn_1_flr_1 zn psz-ac_1-6 supply outlet node_Air_Flow_Setpoint is a: Air Flow Setpoint",
               "Creating input for bath_zn_1_flr_1 zn_Heating_Temperature_Setpoint",
               "bath_zn_1_flr_1 zn_Heating_Temperature_Setpoint is a: Heating Temperature Setpoint",
               "Creating input for cafeteria_zn_1_flr_1 zn_Heating_Temperature_Setpoint",
               "cafeteria_zn_1_flr_1 zn_Heating_Temperature_Setpoint is a: Heating Temperature Setpoint",
               "Creating input for computer_class_zn_1_flr_1 zn_Heating_Temperature_Setpoint",
               "computer_class_zn_1_flr_1 zn_Heating_Temperature_Setpoint is a: Heating Temperature Setpoint",
               "Creating input for corner_class_1_pod_1_zn_1_flr_1 zn_Heating_Temperature_Setpoint",
               "corner_class_1_pod_1_zn_1_flr_1 zn_Heating_Temperature_Setpoint is a: Heating Temperature Setpoint",
               "Creating input for corner_class_1_pod_2_zn_1_flr_1 zn_Heating_Temperature_Setpoint",
               "corner_class_1_pod_2_zn_1_flr_1 zn_Heating_Temperature_Setpoint is a: Heating Temperature Setpoint",
               "Creating input for corner_class_1_pod_3_zn_1_flr_1 zn_Heating_Temperature_Setpoint",
               "corner_class_1_pod_3_zn_1_flr_1 zn_Heating_Temperature_Setpoint is a: Heating Temperature Setpoint",
               "Creating input for corner_class_2_pod_1_zn_1_flr_1 zn_Heating_Temperature_Setpoint",
               "corner_class_2_pod_1_zn_1_flr_1 zn_Heating_Temperature_Setpoint is a: Heating Temperature Setpoint",
               "Creating input for corner_class_2_pod_2_zn_1_flr_1 zn_Heating_Temperature_Setpoint",
               "corner_class_2_pod_2_zn_1_flr_1 zn_Heating_Temperature_Setpoint is a: Heating Temperature Setpoint",
               "Creating input for corner_class_2_pod_3_zn_1_flr_1 zn_Heating_Temperature_Setpoint",
               "corner_class_2_pod_3_zn_1_flr_1 zn_Heating_Temperature_Setpoint is a: Heating Temperature Setpoint",
               "Creating input for corridor_pod_1_zn_1_flr_1 zn_Heating_Temperature_Setpoint",
               "corridor_pod_1_zn_1_flr_1 zn_Heating_Temperature_Setpoint is a: Heating Temperature Setpoint",
               "Creating input for corridor_pod_2_zn_1_flr_1 zn_Heating_Temperature_Setpoint",
               "corridor_pod_2_zn_1_flr_1 zn_Heating_Temperature_Setpoint is a: Heating Temperature Setpoint",
               "Creating input for corridor_pod_3_zn_1_flr_1 zn_Heating_Temperature_Setpoint",
               "corridor_pod_3_zn_1_flr_1 zn_Heating_Temperature_Setpoint is a: Heating Temperature Setpoint",
               "Creating input for gym_zn_1_flr_1 zn_Heating_Temperature_Setpoint",
               "gym_zn_1_flr_1 zn_Heating_Temperature_Setpoint is a: Heating Temperature Setpoint",
               "Creating input for kitchen_zn_1_flr_1 zn_Heating_Temperature_Setpoint",
               "kitchen_zn_1_flr_1 zn_Heating_Temperature_Setpoint is a: Heating Temperature Setpoint",
               "Creating input for library_media_center_zn_1_flr_1 zn_Heating_Temperature_Setpoint",
               "library_media_center_zn_1_flr_1 zn_Heating_Temperature_Setpoint is a: Heating Temperature Setpoint",
               "Creating input for lobby_zn_1_flr_1 zn_Heating_Temperature_Setpoint",
               "lobby_zn_1_flr_1 zn_Heating_Temperature_Setpoint is a: Heating Temperature Setpoint",
               "Creating input for main_corridor_zn_1_flr_1 zn_Heating_Temperature_Setpoint",
               "main_corridor_zn_1_flr_1 zn_Heating_Temperature_Setpoint is a: Heating Temperature Setpoint",
               "Creating input for mech_zn_1_flr_1 zn_Heating_Temperature_Setpoint",
               "mech_zn_1_flr_1 zn_Heating_Temperature_Setpoint is a: Heating Temperature Setpoint",
               "Creating input for mult_class_1_pod_1_zn_1_flr_1 zn_Heating_Temperature_Setpoint",
               "mult_class_1_pod_1_zn_1_flr_1 zn_Heating_Temperature_Setpoint is a: Heating Temperature Setpoint",
               "Creating input for mult_class_1_pod_2_zn_1_flr_1 zn_Heating_Temperature_Setpoint",
               "mult_class_1_pod_2_zn_1_flr_1 zn_Heating_Temperature_Setpoint is a: Heating Temperature Setpoint",
               "Creating input for mult_class_1_pod_3_zn_1_flr_1 zn_Heating_Temperature_Setpoint",
               "mult_class_1_pod_3_zn_1_flr_1 zn_Heating_Temperature_Setpoint is a: Heating Temperature Setpoint",
               "Creating input for mult_class_2_pod_1_zn_1_flr_1 zn_Heating_Temperature_Setpoint",
               "mult_class_2_pod_1_zn_1_flr_1 zn_Heating_Temperature_Setpoint is a: Heating Temperature Setpoint",
               "Creating input for mult_class_2_pod_2_zn_1_flr_1 zn_Heating_Temperature_Setpoint",
               "mult_class_2_pod_2_zn_1_flr_1 zn_Heating_Temperature_Setpoint is a: Heating Temperature Setpoint",
               "Creating input for mult_class_2_pod_3_zn_1_flr_1 zn_Heating_Temperature_Setpoint",
               "mult_class_2_pod_3_zn_1_flr_1 zn_Heating_Temperature_Setpoint is a: Heating Temperature Setpoint",
               "Creating input for offices_zn_1_flr_1 zn_Heating_Temperature_Setpoint",
               "offices_zn_1_flr_1 zn_Heating_Temperature_Setpoint is a: Heating Temperature Setpoint",
               "Creating input for bath_zn_1_flr_1 zn_Cooling_Temperature_Setpoint",
               "bath_zn_1_flr_1 zn_Cooling_Temperature_Setpoint is a: Cooling Temperature Setpoint",
               "Creating input for cafeteria_zn_1_flr_1 zn_Cooling_Temperature_Setpoint",
               "cafeteria_zn_1_flr_1 zn_Cooling_Temperature_Setpoint is a: Cooling Temperature Setpoint",
               "Creating input for computer_class_zn_1_flr_1 zn_Cooling_Temperature_Setpoint",
               "computer_class_zn_1_flr_1 zn_Cooling_Temperature_Setpoint is a: Cooling Temperature Setpoint",
               "Creating input for corner_class_1_pod_1_zn_1_flr_1 zn_Cooling_Temperature_Setpoint",
               "corner_class_1_pod_1_zn_1_flr_1 zn_Cooling_Temperature_Setpoint is a: Cooling Temperature Setpoint",
               "Creating input for corner_class_1_pod_2_zn_1_flr_1 zn_Cooling_Temperature_Setpoint",
               "corner_class_1_pod_2_zn_1_flr_1 zn_Cooling_Temperature_Setpoint is a: Cooling Temperature Setpoint",
               "Creating input for corner_class_1_pod_3_zn_1_flr_1 zn_Cooling_Temperature_Setpoint",
               "corner_class_1_pod_3_zn_1_flr_1 zn_Cooling_Temperature_Setpoint is a: Cooling Temperature Setpoint",
               "Creating input for corner_class_2_pod_1_zn_1_flr_1 zn_Cooling_Temperature_Setpoint",
               "corner_class_2_pod_1_zn_1_flr_1 zn_Cooling_Temperature_Setpoint is a: Cooling Temperature Setpoint",
               "Creating input for corner_class_2_pod_2_zn_1_flr_1 zn_Cooling_Temperature_Setpoint",
               "corner_class_2_pod_2_zn_1_flr_1 zn_Cooling_Temperature_Setpoint is a: Cooling Temperature Setpoint",
               "Creating input for corner_class_2_pod_3_zn_1_flr_1 zn_Cooling_Temperature_Setpoint",
               "corner_class_2_pod_3_zn_1_flr_1 zn_Cooling_Temperature_Setpoint is a: Cooling Temperature Setpoint",
               "Creating input for corridor_pod_1_zn_1_flr_1 zn_Cooling_Temperature_Setpoint",
               "corridor_pod_1_zn_1_flr_1 zn_Cooling_Temperature_Setpoint is a: Cooling Temperature Setpoint",
               "Creating input for corridor_pod_2_zn_1_flr_1 zn_Cooling_Temperature_Setpoint",
               "corridor_pod_2_zn_1_flr_1 zn_Cooling_Temperature_Setpoint is a: Cooling Temperature Setpoint",
               "Creating input for corridor_pod_3_zn_1_flr_1 zn_Cooling_Temperature_Setpoint",
               "corridor_pod_3_zn_1_flr_1 zn_Cooling_Temperature_Setpoint is a: Cooling Temperature Setpoint",
               "Creating input for gym_zn_1_flr_1 zn_Cooling_Temperature_Setpoint",
               "gym_zn_1_flr_1 zn_Cooling_Temperature_Setpoint is a: Cooling Temperature Setpoint",
               "Creating input for kitchen_zn_1_flr_1 zn_Cooling_Temperature_Setpoint",
               "kitchen_zn_1_flr_1 zn_Cooling_Temperature_Setpoint is a: Cooling Temperature Setpoint",
               "Creating input for library_media_center_zn_1_flr_1 zn_Cooling_Temperature_Setpoint",
               "library_media_center_zn_1_flr_1 zn_Cooling_Temperature_Setpoint is a: Cooling Temperature Setpoint",
               "Creating input for lobby_zn_1_flr_1 zn_Cooling_Temperature_Setpoint",
               "lobby_zn_1_flr_1 zn_Cooling_Temperature_Setpoint is a: Cooling Temperature Setpoint",
               "Creating input for main_corridor_zn_1_flr_1 zn_Cooling_Temperature_Setpoint",
               "main_corridor_zn_1_flr_1 zn_Cooling_Temperature_Setpoint is a: Cooling Temperature Setpoint",
               "Creating input for mech_zn_1_flr_1 zn_Cooling_Temperature_Setpoint",
               "mech_zn_1_flr_1 zn_Cooling_Temperature_Setpoint is a: Cooling Temperature Setpoint",
               "Creating input for mult_class_1_pod_1_zn_1_flr_1 zn_Cooling_Temperature_Setpoint",
               "mult_class_1_pod_1_zn_1_flr_1 zn_Cooling_Temperature_Setpoint is a: Cooling Temperature Setpoint",
               "Creating input for mult_class_1_pod_2_zn_1_flr_1 zn_Cooling_Temperature_Setpoint",
               "mult_class_1_pod_2_zn_1_flr_1 zn_Cooling_Temperature_Setpoint is a: Cooling Temperature Setpoint",
               "Creating input for mult_class_1_pod_3_zn_1_flr_1 zn_Cooling_Temperature_Setpoint",
               "mult_class_1_pod_3_zn_1_flr_1 zn_Cooling_Temperature_Setpoint is a: Cooling Temperature Setpoint",
               "Creating input for mult_class_2_pod_1_zn_1_flr_1 zn_Cooling_Temperature_Setpoint",
               "mult_class_2_pod_1_zn_1_flr_1 zn_Cooling_Temperature_Setpoint is a: Cooling Temperature Setpoint",
               "Creating input for mult_class_2_pod_2_zn_1_flr_1 zn_Cooling_Temperature_Setpoint",
               "mult_class_2_pod_2_zn_1_flr_1 zn_Cooling_Temperature_Setpoint is a: Cooling Temperature Setpoint",
               "Creating input for mult_class_2_pod_3_zn_1_flr_1 zn_Cooling_Temperature_Setpoint",
               "mult_class_2_pod_3_zn_1_flr_1 zn_Cooling_Temperature_Setpoint is a: Cooling Temperature Setpoint",
               "Creating input for offices_zn_1_flr_1 zn_Cooling_Temperature_Setpoint",
               "offices_zn_1_flr_1 zn_Cooling_Temperature_Setpoint is a: Cooling Temperature Setpoint"
            ],
            "step_result" : "Success",
            "step_values" : [],
            "step_warnings" : []
         }
      }
   ],
   "updated_at" : "20230410T202108Z",
   "weather_file" : "USA_CA_Red.Bluff.Muni.AP.725910_TMY.epw"
}