{
   "completed_at" : "20221129T145502Z",
   "completed_status" : "Success",
   "created_at" : "20221129T145229Z",
   "current_step" : 1,
   "eplusout_err" : "Program Version,EnergyPlus, Version 22.1.0-ed759b17ee, YMD=2022.11.29 07:54,\n   ************* Beginning Zone Sizing Calculations\n   ** Warning ** ProcessScheduleInput: Schedule:Day:Interval=\"ECONOMIZER MAX OA FRACTION 70 PCT DEFAULT\", Blank Schedule Type Limits Name input -- will not be validated.\n   ** Warning ** ProcessScheduleInput: Schedule:Day:Interval=\"OFFICESMALL_BUSINESS_SCH DEFAULT\", Blank Schedule Type Limits Name input -- will not be validated.\n   ** Warning ** ProcessScheduleInput: Schedule:Day:Interval=\"OFFICESMALL_BUSINESS_SCH SUMMER DESIGN DAY\", Blank Schedule Type Limits Name input -- will not be validated.\n   ** Warning ** ProcessScheduleInput: Schedule:Day:Interval=\"OFFICESMALL_BUSINESS_SCH WINTER DESIGN DAY\", Blank Schedule Type Limits Name input -- will not be validated.\n   ** Warning ** ProcessScheduleInput: Schedule:Day:Interval=\"OFFICESMALL_BUSINESS_SCH WKDY DAY\", Blank Schedule Type Limits Name input -- will not be validated.\n   ** Warning ** ProcessScheduleInput: Schedule:Year=\"OFFICESMALL_BUSINESS_SCH\", Blank Schedule Type Limits Name input -- will not be validated.\n   ** Warning ** ProcessScheduleInput: Schedule:Constant=\"ALWAYS OFF DISCRETE\", Blank Schedule Type Limits Name input -- will not be validated.\n   ** Warning ** ProcessScheduleInput: Schedule:Constant=\"ALWAYS ON CONTINUOUS\", Blank Schedule Type Limits Name input -- will not be validated.\n   ** Warning ** CheckUsedConstructions: There are 12 nominally unused constructions in input.\n   **   ~~~   ** For explicit details on each unused construction, use Output:Diagnostics,DisplayExtraWarnings;\n   ** Warning ** GetInternalHeatGains: People=\"OFFICE WHOLEBUILDING - SM OFFICE PEOPLE\" has comfort related schedules but no thermal comfort model selected.\n   **   ~~~   ** If schedules are specified for air velocity, clothing insulation, and/or work efficiency but no thermal comfort\n   **   ~~~   ** thermal comfort model is selected, the schedules will be listed as unused schedules in the .err file.\n   **   ~~~   ** To avoid these errors, select a valid thermal comfort model or eliminate these schedules in the PEOPLE input.\n   ** Warning ** GetInternalHeatGains: People=\"OFFICE WHOLEBUILDING - SM OFFICE PEOPLE\" has comfort related schedules but no thermal comfort model selected.\n   **   ~~~   ** If schedules are specified for air velocity, clothing insulation, and/or work efficiency but no thermal comfort\n   **   ~~~   ** thermal comfort model is selected, the schedules will be listed as unused schedules in the .err file.\n   **   ~~~   ** To avoid these errors, select a valid thermal comfort model or eliminate these schedules in the PEOPLE input.\n   ** Warning ** GetInternalHeatGains: People=\"OFFICE WHOLEBUILDING - SM OFFICE PEOPLE\" has comfort related schedules but no thermal comfort model selected.\n   **   ~~~   ** If schedules are specified for air velocity, clothing insulation, and/or work efficiency but no thermal comfort\n   **   ~~~   ** thermal comfort model is selected, the schedules will be listed as unused schedules in the .err file.\n   **   ~~~   ** To avoid these errors, select a valid thermal comfort model or eliminate these schedules in the PEOPLE input.\n   ** Warning ** GetInternalHeatGains: People=\"OFFICE WHOLEBUILDING - SM OFFICE PEOPLE\" has comfort related schedules but no thermal comfort model selected.\n   **   ~~~   ** If schedules are specified for air velocity, clothing insulation, and/or work efficiency but no thermal comfort\n   **   ~~~   ** thermal comfort model is selected, the schedules will be listed as unused schedules in the .err file.\n   **   ~~~   ** To avoid these errors, select a valid thermal comfort model or eliminate these schedules in the PEOPLE input.\n   ** Warning ** GetInternalHeatGains: People=\"OFFICE WHOLEBUILDING - SM OFFICE PEOPLE\" has comfort related schedules but no thermal comfort model selected.\n   **   ~~~   ** If schedules are specified for air velocity, clothing insulation, and/or work efficiency but no thermal comfort\n   **   ~~~   ** thermal comfort model is selected, the schedules will be listed as unused schedules in the .err file.\n   **   ~~~   ** To avoid these errors, select a valid thermal comfort model or eliminate these schedules in the PEOPLE input.\n   ** Warning ** Seems like you already tried to get a Handle on this Actuator 1times.\n   **   ~~~   ** Occurred for componentType='LIGHTS', controlType='ELECTRICITY RATE', uniqueKey='PERIMETER_ZN_2 ZN OFFICE WHOLEBUILDING - SM OFFICE LIGHTS'.\n   **   ~~~   ** You should take note that there is a risk of overwritting.\n   ** Warning ** Seems like you already tried to get a Handle on this Actuator 2times.\n   **   ~~~   ** Occurred for componentType='LIGHTS', controlType='ELECTRICITY RATE', uniqueKey='PERIMETER_ZN_2 ZN OFFICE WHOLEBUILDING - SM OFFICE LIGHTS'.\n   **   ~~~   ** You should take note that there is a risk of overwritting.\n   ** Warning ** Seems like you already tried to get a Handle on this Actuator 3times.\n   **   ~~~   ** Occurred for componentType='LIGHTS', controlType='ELECTRICITY RATE', uniqueKey='PERIMETER_ZN_2 ZN OFFICE WHOLEBUILDING - SM OFFICE LIGHTS'.\n   **   ~~~   ** You should take note that there is a risk of overwritting.\n   ** Warning ** Seems like you already tried to get a Handle on this Actuator 4times.\n   **   ~~~   ** Occurred for componentType='LIGHTS', controlType='ELECTRICITY RATE', uniqueKey='PERIMETER_ZN_2 ZN OFFICE WHOLEBUILDING - SM OFFICE LIGHTS'.\n   **   ~~~   ** You should take note that there is a risk of overwritting.\n   ** Warning ** GetDaylightingControls: Fraction of zone or space controlled by the Daylighting reference points is < 1.0.\n   **   ~~~   ** ..discovered in Daylighting:Controls=\"PERIMETER_ZN_1 ZN DAYLIGHTINGCONTROLS\", only 0.275 of the zone or space is controlled.\n   ** Warning ** GetDaylightingControls: Fraction of zone or space controlled by the Daylighting reference points is < 1.0.\n   **   ~~~   ** ..discovered in Daylighting:Controls=\"PERIMETER_ZN_2 ZN DAYLIGHTINGCONTROLS\", only 0.282 of the zone or space is controlled.\n   ** Warning ** GetDaylightingControls: Fraction of zone or space controlled by the Daylighting reference points is < 1.0.\n   **   ~~~   ** ..discovered in Daylighting:Controls=\"PERIMETER_ZN_3 ZN DAYLIGHTINGCONTROLS\", only 0.271 of the zone or space is controlled.\n   ** Warning ** GetDaylightingControls: Fraction of zone or space controlled by the Daylighting reference points is < 1.0.\n   **   ~~~   ** ..discovered in Daylighting:Controls=\"PERIMETER_ZN_4 ZN DAYLIGHTINGCONTROLS\", only 0.282 of the zone or space is controlled.\n   ************* Beginning System Sizing Calculations\n   ** Warning ** GetDXCoils: Coil:Heating:DX:SingleSpeed=\"CORE_ZN ZN HP HTG COIL 27 CLG KBTU/HR 8.0HSPF\" curve values\n   **   ~~~   ** ... Defrost Energy Input Ratio Function of Temperature Curve Name = CORE_ZN ZN HP HTG COIL DEFROST EIR FUNC OF TEMP CURVE 1 output is not equal to 1.0 (+ or - 10%) at rated conditions.\n   **   ~~~   ** ... Curve output at rated conditions = 0.787\n   ** Warning ** GetDXCoils: Coil:Heating:DX:SingleSpeed=\"PERIMETER_ZN_1 ZN HP HTG COIL 26 CLG KBTU/HR 8.0HSPF\" curve values\n   **   ~~~   ** ... Defrost Energy Input Ratio Function of Temperature Curve Name = PERIMETER_ZN_1 ZN HP HTG COIL DEFROST EIR FUNC OF TEMP CURVE 1 output is not equal to 1.0 (+ or - 10%) at rated conditions.\n   **   ~~~   ** ... Curve output at rated conditions = 0.787\n   ** Warning ** GetDXCoils: Coil:Heating:DX:SingleSpeed=\"PERIMETER_ZN_2 ZN HP HTG COIL 20 CLG KBTU/HR 8.0HSPF\" curve values\n   **   ~~~   ** ... Defrost Energy Input Ratio Function of Temperature Curve Name = PERIMETER_ZN_2 ZN HP HTG COIL DEFROST EIR FUNC OF TEMP CURVE 1 output is not equal to 1.0 (+ or - 10%) at rated conditions.\n   **   ~~~   ** ... Curve output at rated conditions = 0.787\n   ** Warning ** GetDXCoils: Coil:Heating:DX:SingleSpeed=\"PERIMETER_ZN_3 ZN HP HTG COIL 25 CLG KBTU/HR 8.0HSPF\" curve values\n   **   ~~~   ** ... Defrost Energy Input Ratio Function of Temperature Curve Name = PERIMETER_ZN_3 ZN HP HTG COIL DEFROST EIR FUNC OF TEMP CURVE 1 output is not equal to 1.0 (+ or - 10%) at rated conditions.\n   **   ~~~   ** ... Curve output at rated conditions = 0.787\n   ** Warning ** GetDXCoils: Coil:Heating:DX:SingleSpeed=\"PERIMETER_ZN_4 ZN HP HTG COIL 22 CLG KBTU/HR 8.0HSPF\" curve values\n   **   ~~~   ** ... Defrost Energy Input Ratio Function of Temperature Curve Name = PERIMETER_ZN_4 ZN HP HTG COIL DEFROST EIR FUNC OF TEMP CURVE 1 output is not equal to 1.0 (+ or - 10%) at rated conditions.\n   **   ~~~   ** ... Curve output at rated conditions = 0.787\n   ** Warning ** AirLoopHVAC:UnitarySystem = CORE_ZN ZN PSZ-AC-1 UNITARY HP\n   **   ~~~   ** Method used to determine the cooling supply air flow rate is not specified when cooling coil is present.\n   ** Warning ** AirLoopHVAC:UnitarySystem = CORE_ZN ZN PSZ-AC-1 UNITARY HP\n   **   ~~~   ** Method used to determine the heating supply air flow rate is not specified when heating coil is present.\n   ** Warning ** AirLoopHVAC:UnitarySystem = PERIMETER_ZN_1 ZN PSZ-AC-2 UNITARY HP\n   **   ~~~   ** Method used to determine the cooling supply air flow rate is not specified when cooling coil is present.\n   ** Warning ** AirLoopHVAC:UnitarySystem = PERIMETER_ZN_1 ZN PSZ-AC-2 UNITARY HP\n   **   ~~~   ** Method used to determine the heating supply air flow rate is not specified when heating coil is present.\n   ** Warning ** AirLoopHVAC:UnitarySystem = PERIMETER_ZN_2 ZN PSZ-AC-3 UNITARY HP\n   **   ~~~   ** Method used to determine the cooling supply air flow rate is not specified when cooling coil is present.\n   ** Warning ** AirLoopHVAC:UnitarySystem = PERIMETER_ZN_2 ZN PSZ-AC-3 UNITARY HP\n   **   ~~~   ** Method used to determine the heating supply air flow rate is not specified when heating coil is present.\n   ** Warning ** AirLoopHVAC:UnitarySystem = PERIMETER_ZN_3 ZN PSZ-AC-4 UNITARY HP\n   **   ~~~   ** Method used to determine the cooling supply air flow rate is not specified when cooling coil is present.\n   ** Warning ** AirLoopHVAC:UnitarySystem = PERIMETER_ZN_3 ZN PSZ-AC-4 UNITARY HP\n   **   ~~~   ** Method used to determine the heating supply air flow rate is not specified when heating coil is present.\n   ** Warning ** AirLoopHVAC:UnitarySystem = PERIMETER_ZN_4 ZN PSZ-AC-5 UNITARY HP\n   **   ~~~   ** Method used to determine the cooling supply air flow rate is not specified when cooling coil is present.\n   ** Warning ** AirLoopHVAC:UnitarySystem = PERIMETER_ZN_4 ZN PSZ-AC-5 UNITARY HP\n   **   ~~~   ** Method used to determine the heating supply air flow rate is not specified when heating coil is present.\n   ************* Beginning Plant Sizing Calculations\n   ** Warning ** GetOAControllerInputs: Controller:MechanicalVentilation=\"CONTROLLER MECHANICAL VENTILATION 5\n   **   ~~~   ** Cannot locate a matching DesignSpecification:ZoneAirDistribution object for Zone=\"CORE_ZN ZN\".\n   **   ~~~   ** Using default zone air distribution effectiveness of 1.0 for heating and cooling.\n   ** Warning ** GetOAControllerInputs: Controller:MechanicalVentilation=\"CONTROLLER MECHANICAL VENTILATION 1\n   **   ~~~   ** Cannot locate a matching DesignSpecification:ZoneAirDistribution object for Zone=\"PERIMETER_ZN_1 ZN\".\n   **   ~~~   ** Using default zone air distribution effectiveness of 1.0 for heating and cooling.\n   ** Warning ** GetOAControllerInputs: Controller:MechanicalVentilation=\"CONTROLLER MECHANICAL VENTILATION 2\n   **   ~~~   ** Cannot locate a matching DesignSpecification:ZoneAirDistribution object for Zone=\"PERIMETER_ZN_2 ZN\".\n   **   ~~~   ** Using default zone air distribution effectiveness of 1.0 for heating and cooling.\n   ** Warning ** GetOAControllerInputs: Controller:MechanicalVentilation=\"CONTROLLER MECHANICAL VENTILATION 3\n   **   ~~~   ** Cannot locate a matching DesignSpecification:ZoneAirDistribution object for Zone=\"PERIMETER_ZN_3 ZN\".\n   **   ~~~   ** Using default zone air distribution effectiveness of 1.0 for heating and cooling.\n   ** Warning ** GetOAControllerInputs: Controller:MechanicalVentilation=\"CONTROLLER MECHANICAL VENTILATION 4\n   **   ~~~   ** Cannot locate a matching DesignSpecification:ZoneAirDistribution object for Zone=\"PERIMETER_ZN_4 ZN\".\n   **   ~~~   ** Using default zone air distribution effectiveness of 1.0 for heating and cooling.\n   ** Warning ** The Standard Ratings is calculated for Coil:Cooling:DX:SingleSpeed = CORE_ZN ZN PSZ-AC-1 1SPD DX HP CLG COIL 27KBTU/HR 14.0SEER but not at the AHRI test condition due to curve out of bound.\n   **   ~~~   **  Review the Standard Ratings calculations in the Engineering Reference for this coil type. Also, use Output:Diagnostics, DisplayExtraWarnings for further guidance.\n   ** Warning ** The Standard Ratings is calculated for Coil:Cooling:DX:SingleSpeed = PERIMETER_ZN_1 ZN PSZ-AC-2 1SPD DX HP CLG COIL 26KBTU/HR 14.0SEER but not at the AHRI test condition due to curve out of bound.\n   **   ~~~   **  Review the Standard Ratings calculations in the Engineering Reference for this coil type. Also, use Output:Diagnostics, DisplayExtraWarnings for further guidance.\n   ** Warning ** The Standard Ratings is calculated for Coil:Cooling:DX:SingleSpeed = PERIMETER_ZN_2 ZN PSZ-AC-3 1SPD DX HP CLG COIL 20KBTU/HR 14.0SEER but not at the AHRI test condition due to curve out of bound.\n   **   ~~~   **  Review the Standard Ratings calculations in the Engineering Reference for this coil type. Also, use Output:Diagnostics, DisplayExtraWarnings for further guidance.\n   ** Warning ** The Standard Ratings is calculated for Coil:Cooling:DX:SingleSpeed = PERIMETER_ZN_3 ZN PSZ-AC-4 1SPD DX HP CLG COIL 25KBTU/HR 14.0SEER but not at the AHRI test condition due to curve out of bound.\n   **   ~~~   **  Review the Standard Ratings calculations in the Engineering Reference for this coil type. Also, use Output:Diagnostics, DisplayExtraWarnings for further guidance.\n   ** Warning ** The Standard Ratings is calculated for Coil:Cooling:DX:SingleSpeed = PERIMETER_ZN_4 ZN PSZ-AC-5 1SPD DX HP CLG COIL 22KBTU/HR 14.0SEER but not at the AHRI test condition due to curve out of bound.\n   **   ~~~   **  Review the Standard Ratings calculations in the Engineering Reference for this coil type. Also, use Output:Diagnostics, DisplayExtraWarnings for further guidance.\n   ** Warning ** Check input. Pump nominal power or motor efficiency is set to 0, for pump=MAIN SERVICE WATER LOOP WATER MAINS PRESSURE DRIVEN\n   ** Warning ** Output:Meter: invalid Key Name=\"DISTRICTCOOLING:FACILITY\" - not found.\n   ** Warning ** Output:Meter: invalid Key Name=\"DISTRICTHEATING:FACILITY\" - not found.\n   ** Warning ** Output:Meter:MeterFileOnly requested for \"Electricity:Facility\" (TimeStep), already on \"Output:Meter\". Will report to both eplusout.eso and eplusout.mtr\n   ************* Testing Individual Branch Integrity\n   ************* All Branches passed integrity testing\n   ************* Testing Individual Supply Air Path Integrity\n   ************* All Supply Air Paths passed integrity testing\n   ************* Testing Individual Return Air Path Integrity\n   ************* All Return Air Paths passed integrity testing\n   ************* No node connection errors were found.\n   ************* Beginning Simulation\n   ** Warning ** In Output:Table:Monthly 'BUILDING ENERGY PERFORMANCE - ELECTRICITY' invalid Variable or Meter Name 'EXTERIOREQUIPMENT:ELECTRICITY'\n   ** Warning ** In Output:Table:Monthly 'BUILDING ENERGY PERFORMANCE - ELECTRICITY' invalid Variable or Meter Name 'HEATREJECTION:ELECTRICITY'\n   ** Warning ** In Output:Table:Monthly 'BUILDING ENERGY PERFORMANCE - ELECTRICITY' invalid Variable or Meter Name 'HUMIDIFIER:ELECTRICITY'\n   ** Warning ** In Output:Table:Monthly 'BUILDING ENERGY PERFORMANCE - ELECTRICITY' invalid Variable or Meter Name 'HEATRECOVERY:ELECTRICITY'\n   ** Warning ** In Output:Table:Monthly 'BUILDING ENERGY PERFORMANCE - ELECTRICITY' invalid Variable or Meter Name 'COGENERATION:ELECTRICITY'\n   ** Warning ** In Output:Table:Monthly 'BUILDING ENERGY PERFORMANCE - ELECTRICITY' invalid Variable or Meter Name 'REFRIGERATION:ELECTRICITY'\n   ** Warning ** In Output:Table:Monthly 'BUILDING ENERGY PERFORMANCE - NATURAL GAS' invalid Variable or Meter Name 'INTERIOREQUIPMENT:NATURALGAS'\n   ** Warning ** In Output:Table:Monthly 'BUILDING ENERGY PERFORMANCE - NATURAL GAS' invalid Variable or Meter Name 'EXTERIOREQUIPMENT:NATURALGAS'\n   ** Warning ** In Output:Table:Monthly 'BUILDING ENERGY PERFORMANCE - NATURAL GAS' invalid Variable or Meter Name 'COOLING:NATURALGAS'\n   ** Warning ** In Output:Table:Monthly 'BUILDING ENERGY PERFORMANCE - NATURAL GAS' invalid Variable or Meter Name 'WATERSYSTEMS:NATURALGAS'\n   ** Warning ** In Output:Table:Monthly 'BUILDING ENERGY PERFORMANCE - NATURAL GAS' invalid Variable or Meter Name 'COGENERATION:NATURALGAS'\n   ** Warning ** In Output:Table:Monthly 'BUILDING ENERGY PERFORMANCE - DISTRICT HEATING' invalid Variable or Meter Name 'INTERIORLIGHTS:DISTRICTHEATING'\n   ** Warning ** In Output:Table:Monthly 'BUILDING ENERGY PERFORMANCE - DISTRICT HEATING' invalid Variable or Meter Name 'EXTERIORLIGHTS:DISTRICTHEATING'\n   ** Warning ** In Output:Table:Monthly 'BUILDING ENERGY PERFORMANCE - DISTRICT HEATING' invalid Variable or Meter Name 'INTERIOREQUIPMENT:DISTRICTHEATING'\n   ** Warning ** In Output:Table:Monthly 'BUILDING ENERGY PERFORMANCE - DISTRICT HEATING' invalid Variable or Meter Name 'EXTERIOREQUIPMENT:DISTRICTHEATING'\n   ** Warning ** In Output:Table:Monthly 'BUILDING ENERGY PERFORMANCE - DISTRICT HEATING' invalid Variable or Meter Name 'FANS:DISTRICTHEATING'\n   ** Warning ** In Output:Table:Monthly 'BUILDING ENERGY PERFORMANCE - DISTRICT HEATING' invalid Variable or Meter Name 'PUMPS:DISTRICTHEATING'\n   ** Warning ** In Output:Table:Monthly 'BUILDING ENERGY PERFORMANCE - DISTRICT HEATING' invalid Variable or Meter Name 'HEATING:DISTRICTHEATING'\n   ** Warning ** In Output:Table:Monthly 'BUILDING ENERGY PERFORMANCE - DISTRICT HEATING' invalid Variable or Meter Name 'COOLING:DISTRICTHEATING'\n   ** Warning ** In Output:Table:Monthly 'BUILDING ENERGY PERFORMANCE - DISTRICT HEATING' invalid Variable or Meter Name 'HEATREJECTION:DISTRICTHEATING'\n   ** Warning ** In Output:Table:Monthly 'BUILDING ENERGY PERFORMANCE - DISTRICT HEATING' invalid Variable or Meter Name 'HUMIDIFIER:DISTRICTHEATING'\n   ** Warning ** In Output:Table:Monthly 'BUILDING ENERGY PERFORMANCE - DISTRICT HEATING' invalid Variable or Meter Name 'HEATRECOVERY:DISTRICTHEATING'\n   ** Warning ** In Output:Table:Monthly 'BUILDING ENERGY PERFORMANCE - DISTRICT HEATING' invalid Variable or Meter Name 'WATERSYSTEMS:DISTRICTHEATING'\n   ** Warning ** In Output:Table:Monthly 'BUILDING ENERGY PERFORMANCE - DISTRICT HEATING' invalid Variable or Meter Name 'COGENERATION:DISTRICTHEATING'\n   ** Warning ** In Output:Table:Monthly 'BUILDING ENERGY PERFORMANCE - DISTRICT COOLING' invalid Variable or Meter Name 'INTERIORLIGHTS:DISTRICTCOOLING'\n   ** Warning ** In Output:Table:Monthly 'BUILDING ENERGY PERFORMANCE - DISTRICT COOLING' invalid Variable or Meter Name 'EXTERIORLIGHTS:DISTRICTCOOLING'\n   ** Warning ** In Output:Table:Monthly 'BUILDING ENERGY PERFORMANCE - DISTRICT COOLING' invalid Variable or Meter Name 'INTERIOREQUIPMENT:DISTRICTCOOLING'\n   ** Warning ** In Output:Table:Monthly 'BUILDING ENERGY PERFORMANCE - DISTRICT COOLING' invalid Variable or Meter Name 'EXTERIOREQUIPMENT:DISTRICTCOOLING'\n   ** Warning ** In Output:Table:Monthly 'BUILDING ENERGY PERFORMANCE - DISTRICT COOLING' invalid Variable or Meter Name 'FANS:DISTRICTCOOLING'\n   ** Warning ** In Output:Table:Monthly 'BUILDING ENERGY PERFORMANCE - DISTRICT COOLING' invalid Variable or Meter Name 'PUMPS:DISTRICTCOOLING'\n   ** Warning ** In Output:Table:Monthly 'BUILDING ENERGY PERFORMANCE - DISTRICT COOLING' invalid Variable or Meter Name 'HEATING:DISTRICTCOOLING'\n   ** Warning ** In Output:Table:Monthly 'BUILDING ENERGY PERFORMANCE - DISTRICT COOLING' invalid Variable or Meter Name 'COOLING:DISTRICTCOOLING'\n   ** Warning ** In Output:Table:Monthly 'BUILDING ENERGY PERFORMANCE - DISTRICT COOLING' invalid Variable or Meter Name 'HEATREJECTION:DISTRICTCOOLING'\n   ** Warning ** In Output:Table:Monthly 'BUILDING ENERGY PERFORMANCE - DISTRICT COOLING' invalid Variable or Meter Name 'HUMIDIFIER:DISTRICTCOOLING'\n   ** Warning ** In Output:Table:Monthly 'BUILDING ENERGY PERFORMANCE - DISTRICT COOLING' invalid Variable or Meter Name 'HEATRECOVERY:DISTRICTCOOLING'\n   ** Warning ** In Output:Table:Monthly 'BUILDING ENERGY PERFORMANCE - DISTRICT COOLING' invalid Variable or Meter Name 'WATERSYSTEMS:DISTRICTCOOLING'\n   ** Warning ** In Output:Table:Monthly 'BUILDING ENERGY PERFORMANCE - DISTRICT COOLING' invalid Variable or Meter Name 'COGENERATION:DISTRICTCOOLING'\n   ** Warning ** In Output:Table:Monthly 'BUILDING ENERGY PERFORMANCE - ELECTRICITY PEAK DEMAND' invalid Variable or Meter Name 'EXTERIOREQUIPMENT:ELECTRICITY'\n   ** Warning ** In Output:Table:Monthly 'BUILDING ENERGY PERFORMANCE - ELECTRICITY PEAK DEMAND' invalid Variable or Meter Name 'HEATREJECTION:ELECTRICITY'\n   ** Warning ** In Output:Table:Monthly 'BUILDING ENERGY PERFORMANCE - ELECTRICITY PEAK DEMAND' invalid Variable or Meter Name 'HUMIDIFIER:ELECTRICITY'\n   ** Warning ** In Output:Table:Monthly 'BUILDING ENERGY PERFORMANCE - ELECTRICITY PEAK DEMAND' invalid Variable or Meter Name 'HEATRECOVERY:ELECTRICITY'\n   ** Warning ** In Output:Table:Monthly 'BUILDING ENERGY PERFORMANCE - ELECTRICITY PEAK DEMAND' invalid Variable or Meter Name 'COGENERATION:ELECTRICITY'\n   ** Warning ** In Output:Table:Monthly 'BUILDING ENERGY PERFORMANCE - NATURAL GAS PEAK DEMAND' invalid Variable or Meter Name 'INTERIOREQUIPMENT:NATURALGAS'\n   ** Warning ** In Output:Table:Monthly 'BUILDING ENERGY PERFORMANCE - NATURAL GAS PEAK DEMAND' invalid Variable or Meter Name 'EXTERIOREQUIPMENT:NATURALGAS'\n   ** Warning ** In Output:Table:Monthly 'BUILDING ENERGY PERFORMANCE - NATURAL GAS PEAK DEMAND' invalid Variable or Meter Name 'COOLING:NATURALGAS'\n   ** Warning ** In Output:Table:Monthly 'BUILDING ENERGY PERFORMANCE - NATURAL GAS PEAK DEMAND' invalid Variable or Meter Name 'WATERSYSTEMS:NATURALGAS'\n   ** Warning ** In Output:Table:Monthly 'BUILDING ENERGY PERFORMANCE - NATURAL GAS PEAK DEMAND' invalid Variable or Meter Name 'COGENERATION:NATURALGAS'\n   ** Warning ** In Output:Table:Monthly 'BUILDING ENERGY PERFORMANCE - DISTRICT HEATING PEAK DEMAND' invalid Variable or Meter Name 'DISTRICTHEATING:FACILITY'\n   ** Warning ** In Output:Table:Monthly 'BUILDING ENERGY PERFORMANCE - DISTRICT HEATING PEAK DEMAND' invalid Variable or Meter Name 'INTERIORLIGHTS:DISTRICTHEATING'\n   ** Warning ** In Output:Table:Monthly 'BUILDING ENERGY PERFORMANCE - DISTRICT HEATING PEAK DEMAND' invalid Variable or Meter Name 'EXTERIORLIGHTS:DISTRICTHEATING'\n   ** Warning ** In Output:Table:Monthly 'BUILDING ENERGY PERFORMANCE - DISTRICT HEATING PEAK DEMAND' invalid Variable or Meter Name 'INTERIOREQUIPMENT:DISTRICTHEATING'\n   ** Warning ** In Output:Table:Monthly 'BUILDING ENERGY PERFORMANCE - DISTRICT HEATING PEAK DEMAND' invalid Variable or Meter Name 'EXTERIOREQUIPMENT:DISTRICTHEATING'\n   ** Warning ** In Output:Table:Monthly 'BUILDING ENERGY PERFORMANCE - DISTRICT HEATING PEAK DEMAND' invalid Variable or Meter Name 'FANS:DISTRICTHEATING'\n   ** Warning ** In Output:Table:Monthly 'BUILDING ENERGY PERFORMANCE - DISTRICT HEATING PEAK DEMAND' invalid Variable or Meter Name 'PUMPS:DISTRICTHEATING'\n   ** Warning ** In Output:Table:Monthly 'BUILDING ENERGY PERFORMANCE - DISTRICT HEATING PEAK DEMAND' invalid Variable or Meter Name 'HEATING:DISTRICTHEATING'\n   ** Warning ** In Output:Table:Monthly 'BUILDING ENERGY PERFORMANCE - DISTRICT HEATING PEAK DEMAND' invalid Variable or Meter Name 'COOLING:DISTRICTHEATING'\n   ** Warning ** In Output:Table:Monthly 'BUILDING ENERGY PERFORMANCE - DISTRICT HEATING PEAK DEMAND' invalid Variable or Meter Name 'HEATREJECTION:DISTRICTHEATING'\n   ** Warning ** In Output:Table:Monthly 'BUILDING ENERGY PERFORMANCE - DISTRICT HEATING PEAK DEMAND' invalid Variable or Meter Name 'HUMIDIFIER:DISTRICTHEATING'\n   ** Warning ** In Output:Table:Monthly 'BUILDING ENERGY PERFORMANCE - DISTRICT HEATING PEAK DEMAND' invalid Variable or Meter Name 'HEATRECOVERY:DISTRICTHEATING'\n   ** Warning ** In Output:Table:Monthly 'BUILDING ENERGY PERFORMANCE - DISTRICT HEATING PEAK DEMAND' invalid Variable or Meter Name 'WATERSYSTEMS:DISTRICTHEATING'\n   ** Warning ** In Output:Table:Monthly 'BUILDING ENERGY PERFORMANCE - DISTRICT HEATING PEAK DEMAND' invalid Variable or Meter Name 'COGENERATION:DISTRICTHEATING'\n   ** Warning ** In Output:Table:Monthly 'BUILDING ENERGY PERFORMANCE - DISTRICT COOLING PEAK DEMAND' invalid Variable or Meter Name 'DISTRICTCOOLING:FACILITY'\n   ** Warning ** In Output:Table:Monthly 'BUILDING ENERGY PERFORMANCE - DISTRICT COOLING PEAK DEMAND' invalid Variable or Meter Name 'INTERIORLIGHTS:DISTRICTCOOLING'\n   ** Warning ** In Output:Table:Monthly 'BUILDING ENERGY PERFORMANCE - DISTRICT COOLING PEAK DEMAND' invalid Variable or Meter Name 'EXTERIORLIGHTS:DISTRICTCOOLING'\n   ** Warning ** In Output:Table:Monthly 'BUILDING ENERGY PERFORMANCE - DISTRICT COOLING PEAK DEMAND' invalid Variable or Meter Name 'INTERIOREQUIPMENT:DISTRICTCOOLING'\n   ** Warning ** In Output:Table:Monthly 'BUILDING ENERGY PERFORMANCE - DISTRICT COOLING PEAK DEMAND' invalid Variable or Meter Name 'EXTERIOREQUIPMENT:DISTRICTCOOLING'\n   ** Warning ** In Output:Table:Monthly 'BUILDING ENERGY PERFORMANCE - DISTRICT COOLING PEAK DEMAND' invalid Variable or Meter Name 'FANS:DISTRICTCOOLING'\n   ** Warning ** In Output:Table:Monthly 'BUILDING ENERGY PERFORMANCE - DISTRICT COOLING PEAK DEMAND' invalid Variable or Meter Name 'PUMPS:DISTRICTCOOLING'\n   ** Warning ** In Output:Table:Monthly 'BUILDING ENERGY PERFORMANCE - DISTRICT COOLING PEAK DEMAND' invalid Variable or Meter Name 'HEATING:DISTRICTCOOLING'\n   ** Warning ** In Output:Table:Monthly 'BUILDING ENERGY PERFORMANCE - DISTRICT COOLING PEAK DEMAND' invalid Variable or Meter Name 'COOLING:DISTRICTCOOLING'\n   ** Warning ** In Output:Table:Monthly 'BUILDING ENERGY PERFORMANCE - DISTRICT COOLING PEAK DEMAND' invalid Variable or Meter Name 'HEATREJECTION:DISTRICTCOOLING'\n   ** Warning ** In Output:Table:Monthly 'BUILDING ENERGY PERFORMANCE - DISTRICT COOLING PEAK DEMAND' invalid Variable or Meter Name 'HUMIDIFIER:DISTRICTCOOLING'\n   ** Warning ** In Output:Table:Monthly 'BUILDING ENERGY PERFORMANCE - DISTRICT COOLING PEAK DEMAND' invalid Variable or Meter Name 'HEATRECOVERY:DISTRICTCOOLING'\n   ** Warning ** In Output:Table:Monthly 'BUILDING ENERGY PERFORMANCE - DISTRICT COOLING PEAK DEMAND' invalid Variable or Meter Name 'WATERSYSTEMS:DISTRICTCOOLING'\n   ** Warning ** In Output:Table:Monthly 'BUILDING ENERGY PERFORMANCE - DISTRICT COOLING PEAK DEMAND' invalid Variable or Meter Name 'COGENERATION:DISTRICTCOOLING'\n   ** Warning ** Processing Monthly Tabular Reports: Variable names not valid for this simulation\n   **   ~~~   ** ...use Output:Diagnostics,DisplayExtraWarnings; to show more details on individual variables.\n   ** Warning ** CalcEquipmentFlowRates: \"MAIN SERVICE WATER USE 0.06GPM AT 140F\" - Target water temperature is greater than the hot water temperature (1.00 C)\n   **   ~~~   **  Environment=RUN PERIOD 1, at Simulation time=01/02 07:00 - 07:10\n   **   ~~~   ** ...target water temperature       = 60.00 C\n   **   ~~~   ** ...hot water temperature       = 59.00 C\n   **   ~~~   ** ...Note: target water temperature should be less than or equal to the hot water temperature\n   **   ~~~   ** ...Target water temperature should be less than or equal to the hot water temperature. Verify temperature setpoints and schedules.\n   ** Warning ** CalcDoe2DXCoil: Coil:Cooling:DX:SingleSpeed \"CORE_ZN ZN PSZ-AC-1 1SPD DX HP CLG COIL 27KBTU/HR 14.0SEER\" - Full load outlet air dry-bulb temperature < 2C. This indicates the possibility of coil frost/freeze. Outlet temperature = 1.57 C.\n   **   ~~~   **  ...Occurrence info = RUN PERIOD 1, 02/24 09:03 - 09:07\n   **   ~~~   ** ... Possible reasons for low outlet air dry-bulb temperatures are: This DX coil\n   **   ~~~   **    1) may have a low inlet air dry-bulb temperature. Inlet air temperature = 21.455 C.\n   **   ~~~   **    2) may have a low air flow rate per watt of cooling capacity. Check inputs.\n   **   ~~~   **    3) is used as part of a HX assisted cooling coil which uses a high sensible effectiveness. Check inputs.\n   ** Warning ** CalcDoe2DXCoil: Coil:Cooling:DX:SingleSpeed \"PERIMETER_ZN_1 ZN PSZ-AC-2 1SPD DX HP CLG COIL 26KBTU/HR 14.0SEER\" - Full load outlet air dry-bulb temperature < 2C. This indicates the possibility of coil frost/freeze. Outlet temperature = 1.80 C.\n   **   ~~~   **  ...Occurrence info = RUN PERIOD 1, 11/13 09:10 - 09:15\n   **   ~~~   ** ... Possible reasons for low outlet air dry-bulb temperatures are: This DX coil\n   **   ~~~   **    1) may have a low inlet air dry-bulb temperature. Inlet air temperature = 21.692 C.\n   **   ~~~   **    2) may have a low air flow rate per watt of cooling capacity. Check inputs.\n   **   ~~~   **    3) is used as part of a HX assisted cooling coil which uses a high sensible effectiveness. Check inputs.\n   ** Warning ** The resource referenced by LifeCycleCost:UsePriceEscalation= \"U.S. AVG  COMMERCIAL-ELECTRICITY\" has no energy cost. \n   **   ~~~   ** ... It is likely that the wrong resource is used. The resource should match the meter used in Utility:Tariff.\n   ** Warning ** The resource referenced by LifeCycleCost:UsePriceEscalation= \"U.S. AVG  COMMERCIAL-DISTILLATE OIL\" has no energy cost. \n   **   ~~~   ** ... It is likely that the wrong resource is used. The resource should match the meter used in Utility:Tariff.\n   ** Warning ** The resource referenced by LifeCycleCost:UsePriceEscalation= \"U.S. AVG  COMMERCIAL-RESIDUAL OIL\" has no energy cost. \n   **   ~~~   ** ... It is likely that the wrong resource is used. The resource should match the meter used in Utility:Tariff.\n   ** Warning ** The resource referenced by LifeCycleCost:UsePriceEscalation= \"U.S. AVG  COMMERCIAL-NATURAL GAS\" has no energy cost. \n   **   ~~~   ** ... It is likely that the wrong resource is used. The resource should match the meter used in Utility:Tariff.\n   ** Warning ** The resource referenced by LifeCycleCost:UsePriceEscalation= \"U.S. AVG  COMMERCIAL-COAL\" has no energy cost. \n   **   ~~~   ** ... It is likely that the wrong resource is used. The resource should match the meter used in Utility:Tariff.\n   ************* Simulation Error Summary *************\n   ************* There are 7 unused schedules in input.\n   ************* There are 7 unused week schedules in input.\n   ************* There are 18 unused day schedules in input.\n   ************* Use Output:Diagnostics,DisplayUnusedSchedules; to see them.\n   *************\n   ************* ===== Recurring Error Summary =====\n   ************* The following recurring error messages occurred.\n   *************\n   *************  ** Warning ** \"MAIN SERVICE WATER USE 0.06GPM AT 140F\" - Target water temperature should be less than or equal to the hot water temperature error continues...\n   *************  **   ~~~   **   This error occurred 392675 total times;\n   *************  **   ~~~   **   during Warmup 0 times;\n   *************  **   ~~~   **   during Sizing 0 times.\n   *************  **   ~~~   **   Max=1.922258  Min=0.153022\n   *************\n   *************  ** Warning ** CalcDoe2DXCoil: Coil:Cooling:DX:SingleSpeed=\"CORE_ZN ZN PSZ-AC-1 1SPD DX HP CLG COIL 27KBTU/HR 14.0SEER\" - Full load outlet temperature indicates a possibility of frost/freeze error continues. Outlet air temperature statistics follow:\n   *************  **   ~~~   **   This error occurred 217 total times;\n   *************  **   ~~~   **   during Warmup 0 times;\n   *************  **   ~~~   **   during Sizing 0 times.\n   *************  **   ~~~   **   Max=1.992616  Min=1.023255\n   *************\n   *************  ** Warning ** CalcDoe2DXCoil: Coil:Cooling:DX:SingleSpeed=\"PERIMETER_ZN_1 ZN PSZ-AC-2 1SPD DX HP CLG COIL 26KBTU/HR 14.0SEER\" - Full load outlet temperature indicates a possibility of frost/freeze error continues. Outlet air temperature statistics follow:\n   *************  **   ~~~   **   This error occurred 17 total times;\n   *************  **   ~~~   **   during Warmup 0 times;\n   *************  **   ~~~   **   during Sizing 0 times.\n   *************  **   ~~~   **   Max=1.989336  Min=1.800606\n   *************\n   *************\n   ************* ===== Final Error Summary =====\n   ************* The following error categories occurred.  Consider correcting or noting.\n   ************* Nominally Unused Constructions\n   ************* ..The nominally unused constructions warning is provided to alert you to potential conditions that can cause\n   ************* ..extra time during simulation. Each construction is calculated by the algorithm indicated in the HeatBalanceAlgorithm\n   ************* ..object. You may remove the constructions indicated (when you use the DisplayExtraWarnings option).\n   *************\n   ************* EnergyPlus Warmup Error Summary. During Warmup: 0 Warning; 0 Severe Errors.\n   ************* EnergyPlus Sizing Error Summary. During Sizing: 37 Warning; 0 Severe Errors.\n   ************* EnergyPlus Completed Successfully-- 393042 Warning; 0 Severe Errors; Elapsed Time=00hr 00min 20.90sec\n",
   "file_paths" : 
   [
      "/private/var/folders/_h/4373pvk125z9gq8hm6nw0tmd_0hcwf/T/osmodel-1669733549-0/resources/generated_files",
      "./files",
      "./weather",
      "../../files",
      "../../weather",
      "./"
   ],
   "hash" : "7E9D5330",
   "seed_file" : "../smalloffice.osm",
   "started_at" : "20221129T145427Z",
   "steps" : 
   [
      {
         "arguments" : 
         {
            "climate_zone" : "ASHRAE 169-2013-3A",
            "template" : "90.1-2016"
         },
         "description" : "Creates the DOE Reference Building Models as starting points for other analyses.",
         "measure_dir_name" : "create_doe_prototype_building",
         "modeler_description" : "",
         "name" : "Create DOE Prototype Building Copy",
         "result" : 
         {
            "completed_at" : "20221129T145440Z",
            "measure_class_name" : "CreateDOEPrototypeBuildingCopy",
            "measure_display_name" : "Create DOE Prototype Building Copy",
            "measure_name" : "create_doe_prototype_building_copy",
            "measure_taxonomy" : "Whole Building.Space Types",
            "measure_type" : "ModelMeasure",
            "measure_uid" : "b19c8ab1-5c1b-47db-8ee8-003f671344cb",
            "measure_version_id" : "8be3fa95-9f8e-4b72-a0c3-c0f0b425a0d0",
            "measure_version_modified" : "20221129T145304Z",
            "measure_xml_checksum" : "A514F332",
            "started_at" : "20221129T145432Z",
            "stderr" : "",
            "stdout" : "[openstudio.model.YearDescription] <1> 'UseWeatherFile' is selected in YearDescription, but there are no weather file set for the model.\n[openstudio.model.YearDescription] <1> 'UseWeatherFile' is selected in YearDescription, but there are no weather file set for the model.\n",
            "step_errors" : [],
            "step_files" : [],
            "step_info" : 
            [
               "Using OpenStudio Standards version 0.2.16 with template 90.1-2016_SmallOffice.",
               "Loading OpenStudio Standards data for 90.1-2016",
               "Loaded space type map from osm file: ../../../data/geometry/ASHRAESmallOffice.osm",
               "Started applying space types (loads)",
               "Office Attic had no ventilation specification, one has been created.",
               "Office Attic had no infiltration objects, one has been created.",
               "Office Attic set infiltration to 0.0 per ft^2 exterior surface area.",
               "Office Attic set infiltration schedule to OfficeLarge INFIL_SCH_PNNL.",
               "Office WholeBuilding - Sm Office had no people, one has been created.",
               "Office WholeBuilding - Sm Office set occupancy to 5.6 people/1000 ft^2.",
               "Office WholeBuilding - Sm Office had no lights, one has been created.",
               "Office WholeBuilding - Sm Office set LPD to 0.79 W/ft^2.",
               "Office WholeBuilding - Sm Office had no electric equipment, one has been created.",
               "Office WholeBuilding - Sm Office set electric EPD to 0.63 W/ft^2.",
               "Office WholeBuilding - Sm Office had no ventilation specification, one has been created.",
               "Office WholeBuilding - Sm Office set ventilation per area to 0.085 cfm/ft^2.",
               "Office WholeBuilding - Sm Office had no infiltration objects, one has been created.",
               "Office WholeBuilding - Sm Office set infiltration to 0.0 per ft^2 exterior surface area.",
               "Office WholeBuilding - Sm Office set occupancy schedule to OfficeSmall BLDG_OCC_SCH.",
               "Office WholeBuilding - Sm Office set occupant activity schedule to OfficeSmall ACTIVITY_SCH.",
               "Office WholeBuilding - Sm Office set lighting schedule to OfficeSmall BLDG_LIGHT_SCH_2013.",
               "Office WholeBuilding - Sm Office set electric equipment schedule to OfficeSmall BLDG_EQUIP_SCH_2013.",
               "Office WholeBuilding - Sm Office set infiltration schedule to OfficeSmall INFIL_QUARTER_ON_SCH.",
               "Office WholeBuilding - Sm Office set heating setpoint schedule to OfficeSmall HTGSETP_SCH_NO_OPTIMUM.",
               "Office WholeBuilding - Sm Office set cooling setpoint schedule to OfficeSmall CLGSETP_SCH_NO_OPTIMUM.",
               "Finished applying space types (loads)",
               "For Attic, no exterior wall area was found, no infiltration will be added.",
               "For Core_ZN, no exterior wall area was found, no infiltration will be added.",
               "For Perimeter_ZN_1, set infiltration rate to 0.112 cfm/ft2 exterior wall area (aka 1.0 cfm/ft2 @75Pa).",
               "For Perimeter_ZN_2, set infiltration rate to 0.112 cfm/ft2 exterior wall area (aka 1.0 cfm/ft2 @75Pa).",
               "For Perimeter_ZN_3, set infiltration rate to 0.112 cfm/ft2 exterior wall area (aka 1.0 cfm/ft2 @75Pa).",
               "For Perimeter_ZN_4, set infiltration rate to 0.112 cfm/ft2 exterior wall area (aka 1.0 cfm/ft2 @75Pa).",
               "Started creating thermal zones",
               "Finished creating thermal zones",
               "Started adding weather file for climate zone: ASHRAE 169-2013-3A.",
               "Extracting weather files from OpenStudio CLI to /private/var/folders/_h/4373pvk125z9gq8hm6nw0tmd_0hcwf/T/osmodel-1669733549-0/resources/run/000_create_doe_prototype_building/extracted_files/weather",
               "Added Atlanta-Hartsfield.Jackson.Intl.AP_GA_USA Ann Clg .4% Condns DB=>MWB design day.",
               "Added Atlanta-Hartsfield.Jackson.Intl.AP_GA_USA Ann Htg 99.6% Condns DB design day.",
               "Started Adding HVAC",
               "Adding PSZ-AC for Perimeter_ZN_1 ZN.",
               "Adding PSZ-AC for Perimeter_ZN_2 ZN.",
               "Adding PSZ-AC for Perimeter_ZN_3 ZN.",
               "Adding PSZ-AC for Perimeter_ZN_4 ZN.",
               "Adding PSZ-AC for Core_ZN ZN.",
               "Finished adding HVAC",
               "Started applying constructions",
               "Adding construction set: 90.1-2016-ASHRAE 169-2013-3A-SmallOffice--is_residentialNo",
               "Adding construction Typical Insulated Exterior Mass Floor R-13.51.",
               "Adding construction Typical Insulated Wood Framed Exterior Wall R-11.24.",
               "Adding construction Typical Wood Joist Attic Floor R-37.04.",
               "Adding construction Typical Interior Floor.",
               "Adding construction Typical Interior Wall.",
               "Adding construction Typical Interior Ceiling.",
               "Adding construction Typical Insulated Carpeted 8in Slab Floor.",
               "Adding construction Typical Insulated Basement Mass Wall.",
               "Adding construction U 0.45 SHGC 0.25 Simple Glazing Window Weighted U-0.45 SHGC 0.25.",
               "Adding construction U 0.45 SHGC 0.25 Simple Glazing Window Weighted U-0.45 SHGC 0.25 1.",
               "Adding construction Typical Insulated Metal Door R-2.7.",
               "Adding construction U 0.45 SHGC 0.25 Simple Glazing Window Weighted U-0.45 SHGC 0.25 2.",
               "Adding construction Typical Overhead Door R-3.23.",
               "Adding construction U 0.55 SHGC 0.35 Simple Glazing Skylight U-0.55 SHGC 0.35.",
               "Adding construction Typical Interior Window.",
               "Adding construction Typical Interior Door.",
               "Adding construction Typical Interior Partition.",
               "Adding construction set: 90.1-2016-ASHRAE 169-2013-3A--Attic-is_residentialNo",
               "Adding construction Typical Attic Soffit.",
               "Adding construction Typical Uninsulated Wood Joist Attic Roof.",
               "Adding construction Typical Wood Joist Attic Floor R-37.04 1.",
               "Construction set for template =90.1-2016, climate zone set =ClimateZone 3A, building type = Office, space type = WholeBuilding - Sm Office, is residential = No was not found in standards_data",
               "Finished applying constructions",
               "Added door infiltration",
               "Added attic infiltration",
               "Added internal mass 'Perimeter_ZN_4 Mass' to space 'Perimeter_ZN_4'.",
               "Added internal mass 'Core_ZN Mass' to space 'Core_ZN'.",
               "Added internal mass 'Attic Mass' to space 'Attic'.",
               "Added internal mass 'Perimeter_ZN_3 Mass' to space 'Perimeter_ZN_3'.",
               "Added internal mass 'Perimeter_ZN_2 Mass' to space 'Perimeter_ZN_2'.",
               "Added internal mass 'Perimeter_ZN_1 Mass' to space 'Perimeter_ZN_1'.",
               "Finished adding internal mass",
               "Started Adding Service Water Heating",
               "Added water heater called 40gal Electricity Water Heater - 40kBtu/hr",
               "Added non-circulating SWH loop called Main Service Water Loop",
               "Adding water fixture to Main Service Water Loop.",
               "Added Main Service Water Use 0.06gpm at 140F.",
               "Finished adding Service Water Heating",
               "Started adding exterior lights",
               "Finished adding exterior lights",
               "Set Daylight Saving Start Date to 2nd Sunday in March and end date to 1st Sunday in November.",
               "Extracting stat file from OpenStudio CLI to /private/var/folders/_h/4373pvk125z9gq8hm6nw0tmd_0hcwf/T/osmodel-1669733549-0/resources/run/000_create_doe_prototype_building/extracted_files/weather",
               "Running simulation /private/var/folders/_h/4373pvk125z9gq8hm6nw0tmd_0hcwf/T/osmodel-1669733549-0/resources/run/000_create_doe_prototype_building/output/SR1.",
               "does not have an Output Variable attached.",
               "does not have an Output Meter attached.",
               "does not have an Output Variable attached.",
               "does not have an Output Meter attached.",
               "does not have an Output Variable attached.",
               "does not have an Output Meter attached.",
               "does not have an Output Variable attached.",
               "does not have an Output Meter attached.",
               "does not have an Output Variable attached.",
               "does not have an Output Meter attached.",
               "does not have an Output Variable attached.",
               "does not have an Output Meter attached.",
               "Finished run.",
               "Started applying multizone vav OA sizing.",
               "Finished applying multizone vav OA sizing.",
               "Started applying prototype HVAC assumptions.",
               "For Prototype: Core_ZN ZN PSZ-AC-1 Fan: 668cfm; Pressure Rise = 2.5in w.c.",
               "For Prototype: Perimeter_ZN_1 ZN PSZ-AC-2 Fan: 642cfm; Pressure Rise = 2.5in w.c.",
               "For Prototype: Perimeter_ZN_2 ZN PSZ-AC-3 Fan: 491cfm; Pressure Rise = 2.5in w.c.",
               "For Prototype: Perimeter_ZN_3 ZN PSZ-AC-4 Fan: 634cfm; Pressure Rise = 2.5in w.c.",
               "For Prototype: Perimeter_ZN_4 ZN PSZ-AC-5 Fan: 552cfm; Pressure Rise = 2.5in w.c.",
               "For Core_ZN ZN PSZ-AC-1 Fan: allowed_hp = 1.01HP; motor eff = 86.5%; total fan eff = 56% based on 668 cfm.",
               "For Perimeter_ZN_1 ZN PSZ-AC-2 Fan: allowed_hp = 1.01HP; motor eff = 86.5%; total fan eff = 56% based on 642 cfm.",
               "For Perimeter_ZN_2 ZN PSZ-AC-3 Fan: allowed_hp = 1.01HP; motor eff = 86.5%; total fan eff = 56% based on 491 cfm.",
               "For Perimeter_ZN_3 ZN PSZ-AC-4 Fan: allowed_hp = 1.01HP; motor eff = 86.5%; total fan eff = 56% based on 634 cfm.",
               "For Perimeter_ZN_4 ZN PSZ-AC-5 Fan: allowed_hp = 1.01HP; motor eff = 86.5%; total fan eff = 56% based on 552 cfm.",
               "Core_ZN ZN PSZ-AC-1 does not require an economizer because the total cooling capacity of 26703 Btu/hr is less than the minimum capacity of 54000 Btu/hr.",
               "Perimeter_ZN_1 ZN PSZ-AC-2 does not require an economizer because the total cooling capacity of 25686 Btu/hr is less than the minimum capacity of 54000 Btu/hr.",
               "Perimeter_ZN_2 ZN PSZ-AC-3 does not require an economizer because the total cooling capacity of 19618 Btu/hr is less than the minimum capacity of 54000 Btu/hr.",
               "Perimeter_ZN_3 ZN PSZ-AC-4 does not require an economizer because the total cooling capacity of 25369 Btu/hr is less than the minimum capacity of 54000 Btu/hr.",
               "Perimeter_ZN_4 ZN PSZ-AC-5 does not require an economizer because the total cooling capacity of 22088 Btu/hr is less than the minimum capacity of 54000 Btu/hr.",
               "Finished applying prototype HVAC assumptions.",
               "Started applying HVAC efficiency standards for 90.1-2016 template.",
               "For Core_ZN ZN PSZ-AC-1: Availability schedule is already set to OfficeSmall HVACOperationSchd.  Will assume this includes unoccupied shut down; no changes will be made.",
               "For Core_ZN ZN PSZ-AC-1, ERV not required based on 21% OA flow, design supply air flow of 668cfm, and climate zone ASHRAE 169-2013-3A. Does not exceed minimum flow requirement of 16000.0cfm.",
               "For Core_ZN ZN PSZ-AC-1: DCV is not required since the system min oa flow is 137 cfm, less than the minimum of 3000 cfm.",
               "For Core_ZN ZN PSZ-AC-1: DCV is not required since the system does not have an economizer.",
               "For Core_ZN ZN PSZ-AC-1: Motorized OA damper not required because the building has 1 stories, less than the minimum of 999 stories for climate zone ASHRAE 169-2013-3A.",
               "For Core_ZN ZN PSZ-AC-1: Optimum start is not required since design flow rate of 668 cfm is below the limit of 10000 cfm.",
               "For Core_ZN ZN PSZ-AC-1: two-stage control is not required since cooling capacity of 26703 Btu/hr is less than the minimum of 65000 Btu/hr .",
               "For Core_ZN ZN PSZ-AC-1: No supply fan found, cannot apply DX fan/economizer control.",
               "For Perimeter_ZN_1 ZN PSZ-AC-2: Availability schedule is already set to OfficeSmall HVACOperationSchd.  Will assume this includes unoccupied shut down; no changes will be made.",
               "For Perimeter_ZN_1 ZN PSZ-AC-2, ERV not required based on 16% OA flow, design supply air flow of 642cfm, and climate zone ASHRAE 169-2013-3A. Does not exceed minimum flow requirement of 26000.0cfm.",
               "For Perimeter_ZN_1 ZN PSZ-AC-2: DCV is not required since the system min oa flow is 104 cfm, less than the minimum of 3000 cfm.",
               "For Perimeter_ZN_1 ZN PSZ-AC-2: DCV is not required since the system does not have an economizer.",
               "For Perimeter_ZN_1 ZN PSZ-AC-2: Motorized OA damper not required because the building has 1 stories, less than the minimum of 999 stories for climate zone ASHRAE 169-2013-3A.",
               "For Perimeter_ZN_1 ZN PSZ-AC-2: Optimum start is not required since design flow rate of 642 cfm is below the limit of 10000 cfm.",
               "For Perimeter_ZN_1 ZN PSZ-AC-2: two-stage control is not required since cooling capacity of 25686 Btu/hr is less than the minimum of 65000 Btu/hr .",
               "For Perimeter_ZN_1 ZN PSZ-AC-2: No supply fan found, cannot apply DX fan/economizer control.",
               "For Perimeter_ZN_2 ZN PSZ-AC-3: Availability schedule is already set to OfficeSmall HVACOperationSchd.  Will assume this includes unoccupied shut down; no changes will be made.",
               "For Perimeter_ZN_2 ZN PSZ-AC-3, ERV not required based on 13% OA flow, design supply air flow of 491cfm, and climate zone ASHRAE 169-2013-3A. Does not exceed minimum flow requirement of 26000.0cfm.",
               "For Perimeter_ZN_2 ZN PSZ-AC-3: DCV is not required since the system min oa flow is 62 cfm, less than the minimum of 3000 cfm.",
               "For Perimeter_ZN_2 ZN PSZ-AC-3: DCV is not required since the system does not have an economizer.",
               "For Perimeter_ZN_2 ZN PSZ-AC-3: Motorized OA damper not required because the building has 1 stories, less than the minimum of 999 stories for climate zone ASHRAE 169-2013-3A.",
               "For Perimeter_ZN_2 ZN PSZ-AC-3: Optimum start is not required since design flow rate of 491 cfm is below the limit of 10000 cfm.",
               "For Perimeter_ZN_2 ZN PSZ-AC-3: two-stage control is not required since cooling capacity of 19618 Btu/hr is less than the minimum of 65000 Btu/hr .",
               "For Perimeter_ZN_2 ZN PSZ-AC-3: No supply fan found, cannot apply DX fan/economizer control.",
               "For Perimeter_ZN_3 ZN PSZ-AC-4: Availability schedule is already set to OfficeSmall HVACOperationSchd.  Will assume this includes unoccupied shut down; no changes will be made.",
               "For Perimeter_ZN_3 ZN PSZ-AC-4, ERV not required based on 16% OA flow, design supply air flow of 634cfm, and climate zone ASHRAE 169-2013-3A. Does not exceed minimum flow requirement of 26000.0cfm.",
               "For Perimeter_ZN_3 ZN PSZ-AC-4: DCV is not required since the system min oa flow is 104 cfm, less than the minimum of 3000 cfm.",
               "For Perimeter_ZN_3 ZN PSZ-AC-4: DCV is not required since the system does not have an economizer.",
               "For Perimeter_ZN_3 ZN PSZ-AC-4: Motorized OA damper not required because the building has 1 stories, less than the minimum of 999 stories for climate zone ASHRAE 169-2013-3A.",
               "For Perimeter_ZN_3 ZN PSZ-AC-4: Optimum start is not required since design flow rate of 634 cfm is below the limit of 10000 cfm.",
               "For Perimeter_ZN_3 ZN PSZ-AC-4: two-stage control is not required since cooling capacity of 25369 Btu/hr is less than the minimum of 65000 Btu/hr .",
               "For Perimeter_ZN_3 ZN PSZ-AC-4: No supply fan found, cannot apply DX fan/economizer control.",
               "For Perimeter_ZN_4 ZN PSZ-AC-5: Availability schedule is already set to OfficeSmall HVACOperationSchd.  Will assume this includes unoccupied shut down; no changes will be made.",
               "For Perimeter_ZN_4 ZN PSZ-AC-5, ERV not required based on 11% OA flow, design supply air flow of 552cfm, and climate zone ASHRAE 169-2013-3A. Does not exceed minimum flow requirement of 26000.0cfm.",
               "For Perimeter_ZN_4 ZN PSZ-AC-5: DCV is not required since the system min oa flow is 62 cfm, less than the minimum of 3000 cfm.",
               "For Perimeter_ZN_4 ZN PSZ-AC-5: DCV is not required since the system does not have an economizer.",
               "For Perimeter_ZN_4 ZN PSZ-AC-5: Motorized OA damper not required because the building has 1 stories, less than the minimum of 999 stories for climate zone ASHRAE 169-2013-3A.",
               "For Perimeter_ZN_4 ZN PSZ-AC-5: Optimum start is not required since design flow rate of 552 cfm is below the limit of 10000 cfm.",
               "For Perimeter_ZN_4 ZN PSZ-AC-5: two-stage control is not required since cooling capacity of 22088 Btu/hr is less than the minimum of 65000 Btu/hr .",
               "For Perimeter_ZN_4 ZN PSZ-AC-5: No supply fan found, cannot apply DX fan/economizer control.",
               "For Core_ZN ZN PSZ-AC-1 Fan: motor nameplate = 1.0HP, motor eff = 85.5%.",
               "For Perimeter_ZN_1 ZN PSZ-AC-2 Fan: motor nameplate = 1.0HP, motor eff = 85.5%.",
               "For Perimeter_ZN_2 ZN PSZ-AC-3 Fan: motor nameplate = 1.0HP, motor eff = 85.5%.",
               "For Perimeter_ZN_3 ZN PSZ-AC-4 Fan: motor nameplate = 1.0HP, motor eff = 85.5%.",
               "For Perimeter_ZN_4 ZN PSZ-AC-5 Fan: motor nameplate = 1.0HP, motor eff = 85.5%.",
               "For Main Service Water Loop Water Mains Pressure Driven: brake hp = 0.0HP, motor nameplate = 0.1HP, motor eff = 70.0%.",
               "For 90.1-2016: Core_ZN ZN HP Htg Coil:  Single Package Cooling Capacity = 27kBtu/hr; HSPF = 8.0",
               "For 90.1-2016: Perimeter_ZN_1 ZN HP Htg Coil:  Single Package Cooling Capacity = 26kBtu/hr; HSPF = 8.0",
               "For 90.1-2016: Perimeter_ZN_2 ZN HP Htg Coil:  Single Package Cooling Capacity = 20kBtu/hr; HSPF = 8.0",
               "For 90.1-2016: Perimeter_ZN_3 ZN HP Htg Coil:  Single Package Cooling Capacity = 25kBtu/hr; HSPF = 8.0",
               "For 90.1-2016: Perimeter_ZN_4 ZN HP Htg Coil:  Single Package Cooling Capacity = 22kBtu/hr; HSPF = 8.0",
               "For 90.1-2016: Core_ZN ZN PSZ-AC-1 1spd DX HP Clg Coil: AirCooled  Single Package Capacity = 27kBtu/hr; SEER = 14.0",
               "For 90.1-2016: Perimeter_ZN_1 ZN PSZ-AC-2 1spd DX HP Clg Coil: AirCooled  Single Package Capacity = 26kBtu/hr; SEER = 14.0",
               "For 90.1-2016: Perimeter_ZN_2 ZN PSZ-AC-3 1spd DX HP Clg Coil: AirCooled  Single Package Capacity = 20kBtu/hr; SEER = 14.0",
               "For 90.1-2016: Perimeter_ZN_3 ZN PSZ-AC-4 1spd DX HP Clg Coil: AirCooled  Single Package Capacity = 25kBtu/hr; SEER = 14.0",
               "For 90.1-2016: Perimeter_ZN_4 ZN PSZ-AC-5 1spd DX HP Clg Coil: AirCooled  Single Package Capacity = 22kBtu/hr; SEER = 14.0",
               "For 90.1-2016: 40gal Electricity Water Heater - 40kBtu/hr 1.0 Therm Eff; thermal efficiency = 1.0, skin-loss UA = 1Btu/hr",
               "For 90.1-2016: Core_ZN ZN PSZ-AC-1 Gas Backup Htg Coil: = 27kBtu/hr; Thermal Efficiency = 0.8",
               "For 90.1-2016: Perimeter_ZN_1 ZN PSZ-AC-2 Gas Backup Htg Coil: = 26kBtu/hr; Thermal Efficiency = 0.8",
               "For 90.1-2016: Perimeter_ZN_2 ZN PSZ-AC-3 Gas Backup Htg Coil: = 20kBtu/hr; Thermal Efficiency = 0.8",
               "For 90.1-2016: Perimeter_ZN_3 ZN PSZ-AC-4 Gas Backup Htg Coil: = 25kBtu/hr; Thermal Efficiency = 0.8",
               "For 90.1-2016: Perimeter_ZN_4 ZN PSZ-AC-5 Gas Backup Htg Coil: = 22kBtu/hr; Thermal Efficiency = 0.8",
               "Finished applying HVAC efficiency standards for 90.1-2016 template.",
               "Started adding daylighting controls.",
               "For Attic, daylighting control not applicable because no exterior fenestration is present.",
               "For Core_ZN, daylighting control not applicable because no exterior fenestration is present.",
               "For Perimeter_ZN_1: illuminance setpoint = 377.0 Lux",
               "For Perimeter_ZN_1: assuming only 43% of the primary sidelit area is daylightable based on typical design practice.",
               "For Perimeter_ZN_1: assuming only 14% of the secondary sidelit area is daylightable based on typical design practice.",
               "For Perimeter_ZN_1: sensor 1 controls 22% of the zone lighting.",
               "For Perimeter_ZN_1: sensor 2 controls 6% of the zone lighting.",
               "For Perimeter_ZN_2: illuminance setpoint = 377.0 Lux",
               "For Perimeter_ZN_2: assuming only 43% of the primary sidelit area is daylightable based on typical design practice.",
               "For Perimeter_ZN_2: assuming only 14% of the secondary sidelit area is daylightable based on typical design practice.",
               "For Perimeter_ZN_2: sensor 1 controls 23% of the zone lighting.",
               "For Perimeter_ZN_2: sensor 2 controls 5% of the zone lighting.",
               "For Perimeter_ZN_3: illuminance setpoint = 377.0 Lux",
               "For Perimeter_ZN_3: assuming only 43% of the primary sidelit area is daylightable based on typical design practice.",
               "For Perimeter_ZN_3: assuming only 14% of the secondary sidelit area is daylightable based on typical design practice.",
               "For Perimeter_ZN_3: sensor 1 controls 22% of the zone lighting.",
               "For Perimeter_ZN_3: sensor 2 controls 6% of the zone lighting.",
               "For Perimeter_ZN_4: illuminance setpoint = 377.0 Lux",
               "For Perimeter_ZN_4: assuming only 43% of the primary sidelit area is daylightable based on typical design practice.",
               "For Perimeter_ZN_4: assuming only 14% of the secondary sidelit area is daylightable based on typical design practice.",
               "For Perimeter_ZN_4: sensor 1 controls 23% of the zone lighting.",
               "For Perimeter_ZN_4: sensor 2 controls 5% of the zone lighting.",
               "Finished adding daylighting controls.",
               "The model started with 914 objects and finished with 769 objects after removing unused resource objects.",
               "Total Time = 8sec."
            ],
            "step_result" : "Success",
            "step_values" : 
            [
               {
                  "name" : "building_type",
                  "value" : "SmallOffice"
               },
               {
                  "name" : "template",
                  "value" : "90.1-2016"
               },
               {
                  "name" : "climate_zone",
                  "value" : "ASHRAE 169-2013-3A"
               },
               {
                  "name" : "epw_file",
                  "value" : "Not Applicable"
               }
            ],
            "step_warnings" : 
            [
               "[openstudio.EpwFile] Successive data points (1988-Jan-31 to 1981-Feb-01, ending on line 753) are greater than 1 day apart in EPW file '/private/var/folders/_h/4373pvk125z9gq8hm6nw0tmd_0hcwf/T/osmodel-1669733549-0/resources/run/000_create_doe_prototype_building/extracted_files/weather/USA_GA_Atlanta-Hartsfield.Jackson.Intl.AP.722190_TMY3.epw'. Data will be treated as typical (TMY)",
               "[openstudio.energyplus.SqlFile] Using EnergyPlusVersion version 22.1.0 which should have 'Year' field, but it's always zero",
               "[openstudio.standards.Model] Find object search criteria returned 2 results, the first one will be returned. Called from :/ruby/2.7.0/gems/openstudio-standards-0.2.16/lib/openstudio-standards/standards/Standards.CoilCoolingDXSingleSpeed.rb:191:in `coil_cooling_dx_single_speed_apply_efficiency_and_curves'. \n Search criteria: \n {\"template\"=>\"90.1-2016\", \"cooling_type\"=>\"AirCooled\", \"subcategory\"=>\"Single Package\"}, capacity = 26702.946454933368 \n  All results: \n {\"template\"=>\"90.1-2016\", \"cooling_type\"=>\"AirCooled\", \"heating_type\"=>\"All Other\", \"subcategory\"=>\"Single Package\", \"minimum_capacity\"=>0.0, \"maximum_capacity\"=>64999.0, \"start_date\"=>\"1919-09-09T00:00:00+00:00\", \"end_date\"=>\"2999-09-09T00:00:00+00:00\", \"minimum_seasonal_energy_efficiency_ratio\"=>14.0, \"minimum_energy_efficiency_ratio\"=>nil, \"minimum_integrated_part_load_value\"=>nil, \"minimum_integrated_energy_efficiency_ratio\"=>nil, \"ptac_eer_coefficient_1\"=>nil, \"ptac_eer_coefficient_2\"=>nil, \"minimum_scop\"=>nil, \"cool_cap_ft\"=>\"PSZ-AC_Unitary_PackagecoolCapFT\", \"cool_cap_fflow\"=>\"PSZ-AC_Unitary_PackagecoolFFF\", \"cool_eir_ft\"=>\"PSZ-AC DX Unitary Package EIRFT\", \"cool_eir_fflow\"=>\"PSZ-AC_Unitary_PackagecoolEIRFFF\", \"cool_plf_fplr\"=>\"PSZ-AC_Unitary_PackagecoolPLR\", \"notes\"=>nil}\n{\"template\"=>\"90.1-2016\", \"cooling_type\"=>\"AirCooled\", \"heating_type\"=>\"Electric Resistance or None\", \"subcategory\"=>\"Single Package\", \"minimum_capacity\"=>0.0, \"maximum_capacity\"=>64999.0, \"start_date\"=>\"2015-01-01T00:00:00+00:00\", \"end_date\"=>\"2999-09-09T00:00:00+00:00\", \"minimum_seasonal_energy_efficiency_ratio\"=>14.0, \"minimum_energy_efficiency_ratio\"=>nil, \"minimum_integrated_part_load_value\"=>nil, \"minimum_integrated_energy_efficiency_ratio\"=>nil, \"ptac_eer_coefficient_1\"=>nil, \"ptac_eer_coefficient_2\"=>nil, \"minimum_scop\"=>nil, \"cool_cap_ft\"=>\"PSZ-AC_Unitary_PackagecoolCapFT\", \"cool_cap_fflow\"=>\"PSZ-AC_Unitary_PackagecoolFFF\", \"cool_eir_ft\"=>\"PSZ-AC DX Unitary Package EIRFT\", \"cool_eir_fflow\"=>\"PSZ-AC_Unitary_PackagecoolEIRFFF\", \"cool_plf_fplr\"=>\"PSZ-AC_Unitary_PackagecoolPLR\", \"notes\"=>nil}",
               "[openstudio.standards.Model] Find object search criteria returned 2 results, the first one will be returned. Called from :/ruby/2.7.0/gems/openstudio-standards-0.2.16/lib/openstudio-standards/standards/Standards.CoilCoolingDXSingleSpeed.rb:61:in `coil_cooling_dx_single_speed_standard_minimum_cop'. \n Search criteria: \n {\"template\"=>\"90.1-2016\", \"cooling_type\"=>\"AirCooled\", \"subcategory\"=>\"Single Package\"}, capacity = 26702.946454933368 \n  All results: \n {\"template\"=>\"90.1-2016\", \"cooling_type\"=>\"AirCooled\", \"heating_type\"=>\"All Other\", \"subcategory\"=>\"Single Package\", \"minimum_capacity\"=>0.0, \"maximum_capacity\"=>64999.0, \"start_date\"=>\"1919-09-09T00:00:00+00:00\", \"end_date\"=>\"2999-09-09T00:00:00+00:00\", \"minimum_seasonal_energy_efficiency_ratio\"=>14.0, \"minimum_energy_efficiency_ratio\"=>nil, \"minimum_integrated_part_load_value\"=>nil, \"minimum_integrated_energy_efficiency_ratio\"=>nil, \"ptac_eer_coefficient_1\"=>nil, \"ptac_eer_coefficient_2\"=>nil, \"minimum_scop\"=>nil, \"cool_cap_ft\"=>\"PSZ-AC_Unitary_PackagecoolCapFT\", \"cool_cap_fflow\"=>\"PSZ-AC_Unitary_PackagecoolFFF\", \"cool_eir_ft\"=>\"PSZ-AC DX Unitary Package EIRFT\", \"cool_eir_fflow\"=>\"PSZ-AC_Unitary_PackagecoolEIRFFF\", \"cool_plf_fplr\"=>\"PSZ-AC_Unitary_PackagecoolPLR\", \"notes\"=>nil}\n{\"template\"=>\"90.1-2016\", \"cooling_type\"=>\"AirCooled\", \"heating_type\"=>\"Electric Resistance or None\", \"subcategory\"=>\"Single Package\", \"minimum_capacity\"=>0.0, \"maximum_capacity\"=>64999.0, \"start_date\"=>\"2015-01-01T00:00:00+00:00\", \"end_date\"=>\"2999-09-09T00:00:00+00:00\", \"minimum_seasonal_energy_efficiency_ratio\"=>14.0, \"minimum_energy_efficiency_ratio\"=>nil, \"minimum_integrated_part_load_value\"=>nil, \"minimum_integrated_energy_efficiency_ratio\"=>nil, \"ptac_eer_coefficient_1\"=>nil, \"ptac_eer_coefficient_2\"=>nil, \"minimum_scop\"=>nil, \"cool_cap_ft\"=>\"PSZ-AC_Unitary_PackagecoolCapFT\", \"cool_cap_fflow\"=>\"PSZ-AC_Unitary_PackagecoolFFF\", \"cool_eir_ft\"=>\"PSZ-AC DX Unitary Package EIRFT\", \"cool_eir_fflow\"=>\"PSZ-AC_Unitary_PackagecoolEIRFFF\", \"cool_plf_fplr\"=>\"PSZ-AC_Unitary_PackagecoolPLR\", \"notes\"=>nil}",
               "[openstudio.standards.Model] Find object search criteria returned 2 results, the first one will be returned. Called from :/ruby/2.7.0/gems/openstudio-standards-0.2.16/lib/openstudio-standards/standards/Standards.CoilCoolingDXSingleSpeed.rb:191:in `coil_cooling_dx_single_speed_apply_efficiency_and_curves'. \n Search criteria: \n {\"template\"=>\"90.1-2016\", \"cooling_type\"=>\"AirCooled\", \"subcategory\"=>\"Single Package\"}, capacity = 25686.486820544324 \n  All results: \n {\"template\"=>\"90.1-2016\", \"cooling_type\"=>\"AirCooled\", \"heating_type\"=>\"All Other\", \"subcategory\"=>\"Single Package\", \"minimum_capacity\"=>0.0, \"maximum_capacity\"=>64999.0, \"start_date\"=>\"1919-09-09T00:00:00+00:00\", \"end_date\"=>\"2999-09-09T00:00:00+00:00\", \"minimum_seasonal_energy_efficiency_ratio\"=>14.0, \"minimum_energy_efficiency_ratio\"=>nil, \"minimum_integrated_part_load_value\"=>nil, \"minimum_integrated_energy_efficiency_ratio\"=>nil, \"ptac_eer_coefficient_1\"=>nil, \"ptac_eer_coefficient_2\"=>nil, \"minimum_scop\"=>nil, \"cool_cap_ft\"=>\"PSZ-AC_Unitary_PackagecoolCapFT\", \"cool_cap_fflow\"=>\"PSZ-AC_Unitary_PackagecoolFFF\", \"cool_eir_ft\"=>\"PSZ-AC DX Unitary Package EIRFT\", \"cool_eir_fflow\"=>\"PSZ-AC_Unitary_PackagecoolEIRFFF\", \"cool_plf_fplr\"=>\"PSZ-AC_Unitary_PackagecoolPLR\", \"notes\"=>nil}\n{\"template\"=>\"90.1-2016\", \"cooling_type\"=>\"AirCooled\", \"heating_type\"=>\"Electric Resistance or None\", \"subcategory\"=>\"Single Package\", \"minimum_capacity\"=>0.0, \"maximum_capacity\"=>64999.0, \"start_date\"=>\"2015-01-01T00:00:00+00:00\", \"end_date\"=>\"2999-09-09T00:00:00+00:00\", \"minimum_seasonal_energy_efficiency_ratio\"=>14.0, \"minimum_energy_efficiency_ratio\"=>nil, \"minimum_integrated_part_load_value\"=>nil, \"minimum_integrated_energy_efficiency_ratio\"=>nil, \"ptac_eer_coefficient_1\"=>nil, \"ptac_eer_coefficient_2\"=>nil, \"minimum_scop\"=>nil, \"cool_cap_ft\"=>\"PSZ-AC_Unitary_PackagecoolCapFT\", \"cool_cap_fflow\"=>\"PSZ-AC_Unitary_PackagecoolFFF\", \"cool_eir_ft\"=>\"PSZ-AC DX Unitary Package EIRFT\", \"cool_eir_fflow\"=>\"PSZ-AC_Unitary_PackagecoolEIRFFF\", \"cool_plf_fplr\"=>\"PSZ-AC_Unitary_PackagecoolPLR\", \"notes\"=>nil}",
               "[openstudio.standards.Model] Find object search criteria returned 2 results, the first one will be returned. Called from :/ruby/2.7.0/gems/openstudio-standards-0.2.16/lib/openstudio-standards/standards/Standards.CoilCoolingDXSingleSpeed.rb:61:in `coil_cooling_dx_single_speed_standard_minimum_cop'. \n Search criteria: \n {\"template\"=>\"90.1-2016\", \"cooling_type\"=>\"AirCooled\", \"subcategory\"=>\"Single Package\"}, capacity = 25686.486820544324 \n  All results: \n {\"template\"=>\"90.1-2016\", \"cooling_type\"=>\"AirCooled\", \"heating_type\"=>\"All Other\", \"subcategory\"=>\"Single Package\", \"minimum_capacity\"=>0.0, \"maximum_capacity\"=>64999.0, \"start_date\"=>\"1919-09-09T00:00:00+00:00\", \"end_date\"=>\"2999-09-09T00:00:00+00:00\", \"minimum_seasonal_energy_efficiency_ratio\"=>14.0, \"minimum_energy_efficiency_ratio\"=>nil, \"minimum_integrated_part_load_value\"=>nil, \"minimum_integrated_energy_efficiency_ratio\"=>nil, \"ptac_eer_coefficient_1\"=>nil, \"ptac_eer_coefficient_2\"=>nil, \"minimum_scop\"=>nil, \"cool_cap_ft\"=>\"PSZ-AC_Unitary_PackagecoolCapFT\", \"cool_cap_fflow\"=>\"PSZ-AC_Unitary_PackagecoolFFF\", \"cool_eir_ft\"=>\"PSZ-AC DX Unitary Package EIRFT\", \"cool_eir_fflow\"=>\"PSZ-AC_Unitary_PackagecoolEIRFFF\", \"cool_plf_fplr\"=>\"PSZ-AC_Unitary_PackagecoolPLR\", \"notes\"=>nil}\n{\"template\"=>\"90.1-2016\", \"cooling_type\"=>\"AirCooled\", \"heating_type\"=>\"Electric Resistance or None\", \"subcategory\"=>\"Single Package\", \"minimum_capacity\"=>0.0, \"maximum_capacity\"=>64999.0, \"start_date\"=>\"2015-01-01T00:00:00+00:00\", \"end_date\"=>\"2999-09-09T00:00:00+00:00\", \"minimum_seasonal_energy_efficiency_ratio\"=>14.0, \"minimum_energy_efficiency_ratio\"=>nil, \"minimum_integrated_part_load_value\"=>nil, \"minimum_integrated_energy_efficiency_ratio\"=>nil, \"ptac_eer_coefficient_1\"=>nil, \"ptac_eer_coefficient_2\"=>nil, \"minimum_scop\"=>nil, \"cool_cap_ft\"=>\"PSZ-AC_Unitary_PackagecoolCapFT\", \"cool_cap_fflow\"=>\"PSZ-AC_Unitary_PackagecoolFFF\", \"cool_eir_ft\"=>\"PSZ-AC DX Unitary Package EIRFT\", \"cool_eir_fflow\"=>\"PSZ-AC_Unitary_PackagecoolEIRFFF\", \"cool_plf_fplr\"=>\"PSZ-AC_Unitary_PackagecoolPLR\", \"notes\"=>nil}",
               "[openstudio.standards.Model] Find object search criteria returned 2 results, the first one will be returned. Called from :/ruby/2.7.0/gems/openstudio-standards-0.2.16/lib/openstudio-standards/standards/Standards.CoilCoolingDXSingleSpeed.rb:191:in `coil_cooling_dx_single_speed_apply_efficiency_and_curves'. \n Search criteria: \n {\"template\"=>\"90.1-2016\", \"cooling_type\"=>\"AirCooled\", \"subcategory\"=>\"Single Package\"}, capacity = 19618.37797068644 \n  All results: \n {\"template\"=>\"90.1-2016\", \"cooling_type\"=>\"AirCooled\", \"heating_type\"=>\"All Other\", \"subcategory\"=>\"Single Package\", \"minimum_capacity\"=>0.0, \"maximum_capacity\"=>64999.0, \"start_date\"=>\"1919-09-09T00:00:00+00:00\", \"end_date\"=>\"2999-09-09T00:00:00+00:00\", \"minimum_seasonal_energy_efficiency_ratio\"=>14.0, \"minimum_energy_efficiency_ratio\"=>nil, \"minimum_integrated_part_load_value\"=>nil, \"minimum_integrated_energy_efficiency_ratio\"=>nil, \"ptac_eer_coefficient_1\"=>nil, \"ptac_eer_coefficient_2\"=>nil, \"minimum_scop\"=>nil, \"cool_cap_ft\"=>\"PSZ-AC_Unitary_PackagecoolCapFT\", \"cool_cap_fflow\"=>\"PSZ-AC_Unitary_PackagecoolFFF\", \"cool_eir_ft\"=>\"PSZ-AC DX Unitary Package EIRFT\", \"cool_eir_fflow\"=>\"PSZ-AC_Unitary_PackagecoolEIRFFF\", \"cool_plf_fplr\"=>\"PSZ-AC_Unitary_PackagecoolPLR\", \"notes\"=>nil}\n{\"template\"=>\"90.1-2016\", \"cooling_type\"=>\"AirCooled\", \"heating_type\"=>\"Electric Resistance or None\", \"subcategory\"=>\"Single Package\", \"minimum_capacity\"=>0.0, \"maximum_capacity\"=>64999.0, \"start_date\"=>\"2015-01-01T00:00:00+00:00\", \"end_date\"=>\"2999-09-09T00:00:00+00:00\", \"minimum_seasonal_energy_efficiency_ratio\"=>14.0, \"minimum_energy_efficiency_ratio\"=>nil, \"minimum_integrated_part_load_value\"=>nil, \"minimum_integrated_energy_efficiency_ratio\"=>nil, \"ptac_eer_coefficient_1\"=>nil, \"ptac_eer_coefficient_2\"=>nil, \"minimum_scop\"=>nil, \"cool_cap_ft\"=>\"PSZ-AC_Unitary_PackagecoolCapFT\", \"cool_cap_fflow\"=>\"PSZ-AC_Unitary_PackagecoolFFF\", \"cool_eir_ft\"=>\"PSZ-AC DX Unitary Package EIRFT\", \"cool_eir_fflow\"=>\"PSZ-AC_Unitary_PackagecoolEIRFFF\", \"cool_plf_fplr\"=>\"PSZ-AC_Unitary_PackagecoolPLR\", \"notes\"=>nil}",
               "[openstudio.standards.Model] Find object search criteria returned 2 results, the first one will be returned. Called from :/ruby/2.7.0/gems/openstudio-standards-0.2.16/lib/openstudio-standards/standards/Standards.CoilCoolingDXSingleSpeed.rb:61:in `coil_cooling_dx_single_speed_standard_minimum_cop'. \n Search criteria: \n {\"template\"=>\"90.1-2016\", \"cooling_type\"=>\"AirCooled\", \"subcategory\"=>\"Single Package\"}, capacity = 19618.37797068644 \n  All results: \n {\"template\"=>\"90.1-2016\", \"cooling_type\"=>\"AirCooled\", \"heating_type\"=>\"All Other\", \"subcategory\"=>\"Single Package\", \"minimum_capacity\"=>0.0, \"maximum_capacity\"=>64999.0, \"start_date\"=>\"1919-09-09T00:00:00+00:00\", \"end_date\"=>\"2999-09-09T00:00:00+00:00\", \"minimum_seasonal_energy_efficiency_ratio\"=>14.0, \"minimum_energy_efficiency_ratio\"=>nil, \"minimum_integrated_part_load_value\"=>nil, \"minimum_integrated_energy_efficiency_ratio\"=>nil, \"ptac_eer_coefficient_1\"=>nil, \"ptac_eer_coefficient_2\"=>nil, \"minimum_scop\"=>nil, \"cool_cap_ft\"=>\"PSZ-AC_Unitary_PackagecoolCapFT\", \"cool_cap_fflow\"=>\"PSZ-AC_Unitary_PackagecoolFFF\", \"cool_eir_ft\"=>\"PSZ-AC DX Unitary Package EIRFT\", \"cool_eir_fflow\"=>\"PSZ-AC_Unitary_PackagecoolEIRFFF\", \"cool_plf_fplr\"=>\"PSZ-AC_Unitary_PackagecoolPLR\", \"notes\"=>nil}\n{\"template\"=>\"90.1-2016\", \"cooling_type\"=>\"AirCooled\", \"heating_type\"=>\"Electric Resistance or None\", \"subcategory\"=>\"Single Package\", \"minimum_capacity\"=>0.0, \"maximum_capacity\"=>64999.0, \"start_date\"=>\"2015-01-01T00:00:00+00:00\", \"end_date\"=>\"2999-09-09T00:00:00+00:00\", \"minimum_seasonal_energy_efficiency_ratio\"=>14.0, \"minimum_energy_efficiency_ratio\"=>nil, \"minimum_integrated_part_load_value\"=>nil, \"minimum_integrated_energy_efficiency_ratio\"=>nil, \"ptac_eer_coefficient_1\"=>nil, \"ptac_eer_coefficient_2\"=>nil, \"minimum_scop\"=>nil, \"cool_cap_ft\"=>\"PSZ-AC_Unitary_PackagecoolCapFT\", \"cool_cap_fflow\"=>\"PSZ-AC_Unitary_PackagecoolFFF\", \"cool_eir_ft\"=>\"PSZ-AC DX Unitary Package EIRFT\", \"cool_eir_fflow\"=>\"PSZ-AC_Unitary_PackagecoolEIRFFF\", \"cool_plf_fplr\"=>\"PSZ-AC_Unitary_PackagecoolPLR\", \"notes\"=>nil}",
               "[openstudio.standards.Model] Find object search criteria returned 2 results, the first one will be returned. Called from :/ruby/2.7.0/gems/openstudio-standards-0.2.16/lib/openstudio-standards/standards/Standards.CoilCoolingDXSingleSpeed.rb:191:in `coil_cooling_dx_single_speed_apply_efficiency_and_curves'. \n Search criteria: \n {\"template\"=>\"90.1-2016\", \"cooling_type\"=>\"AirCooled\", \"subcategory\"=>\"Single Package\"}, capacity = 25369.377768178503 \n  All results: \n {\"template\"=>\"90.1-2016\", \"cooling_type\"=>\"AirCooled\", \"heating_type\"=>\"All Other\", \"subcategory\"=>\"Single Package\", \"minimum_capacity\"=>0.0, \"maximum_capacity\"=>64999.0, \"start_date\"=>\"1919-09-09T00:00:00+00:00\", \"end_date\"=>\"2999-09-09T00:00:00+00:00\", \"minimum_seasonal_energy_efficiency_ratio\"=>14.0, \"minimum_energy_efficiency_ratio\"=>nil, \"minimum_integrated_part_load_value\"=>nil, \"minimum_integrated_energy_efficiency_ratio\"=>nil, \"ptac_eer_coefficient_1\"=>nil, \"ptac_eer_coefficient_2\"=>nil, \"minimum_scop\"=>nil, \"cool_cap_ft\"=>\"PSZ-AC_Unitary_PackagecoolCapFT\", \"cool_cap_fflow\"=>\"PSZ-AC_Unitary_PackagecoolFFF\", \"cool_eir_ft\"=>\"PSZ-AC DX Unitary Package EIRFT\", \"cool_eir_fflow\"=>\"PSZ-AC_Unitary_PackagecoolEIRFFF\", \"cool_plf_fplr\"=>\"PSZ-AC_Unitary_PackagecoolPLR\", \"notes\"=>nil}\n{\"template\"=>\"90.1-2016\", \"cooling_type\"=>\"AirCooled\", \"heating_type\"=>\"Electric Resistance or None\", \"subcategory\"=>\"Single Package\", \"minimum_capacity\"=>0.0, \"maximum_capacity\"=>64999.0, \"start_date\"=>\"2015-01-01T00:00:00+00:00\", \"end_date\"=>\"2999-09-09T00:00:00+00:00\", \"minimum_seasonal_energy_efficiency_ratio\"=>14.0, \"minimum_energy_efficiency_ratio\"=>nil, \"minimum_integrated_part_load_value\"=>nil, \"minimum_integrated_energy_efficiency_ratio\"=>nil, \"ptac_eer_coefficient_1\"=>nil, \"ptac_eer_coefficient_2\"=>nil, \"minimum_scop\"=>nil, \"cool_cap_ft\"=>\"PSZ-AC_Unitary_PackagecoolCapFT\", \"cool_cap_fflow\"=>\"PSZ-AC_Unitary_PackagecoolFFF\", \"cool_eir_ft\"=>\"PSZ-AC DX Unitary Package EIRFT\", \"cool_eir_fflow\"=>\"PSZ-AC_Unitary_PackagecoolEIRFFF\", \"cool_plf_fplr\"=>\"PSZ-AC_Unitary_PackagecoolPLR\", \"notes\"=>nil}",
               "[openstudio.standards.Model] Find object search criteria returned 2 results, the first one will be returned. Called from :/ruby/2.7.0/gems/openstudio-standards-0.2.16/lib/openstudio-standards/standards/Standards.CoilCoolingDXSingleSpeed.rb:61:in `coil_cooling_dx_single_speed_standard_minimum_cop'. \n Search criteria: \n {\"template\"=>\"90.1-2016\", \"cooling_type\"=>\"AirCooled\", \"subcategory\"=>\"Single Package\"}, capacity = 25369.377768178503 \n  All results: \n {\"template\"=>\"90.1-2016\", \"cooling_type\"=>\"AirCooled\", \"heating_type\"=>\"All Other\", \"subcategory\"=>\"Single Package\", \"minimum_capacity\"=>0.0, \"maximum_capacity\"=>64999.0, \"start_date\"=>\"1919-09-09T00:00:00+00:00\", \"end_date\"=>\"2999-09-09T00:00:00+00:00\", \"minimum_seasonal_energy_efficiency_ratio\"=>14.0, \"minimum_energy_efficiency_ratio\"=>nil, \"minimum_integrated_part_load_value\"=>nil, \"minimum_integrated_energy_efficiency_ratio\"=>nil, \"ptac_eer_coefficient_1\"=>nil, \"ptac_eer_coefficient_2\"=>nil, \"minimum_scop\"=>nil, \"cool_cap_ft\"=>\"PSZ-AC_Unitary_PackagecoolCapFT\", \"cool_cap_fflow\"=>\"PSZ-AC_Unitary_PackagecoolFFF\", \"cool_eir_ft\"=>\"PSZ-AC DX Unitary Package EIRFT\", \"cool_eir_fflow\"=>\"PSZ-AC_Unitary_PackagecoolEIRFFF\", \"cool_plf_fplr\"=>\"PSZ-AC_Unitary_PackagecoolPLR\", \"notes\"=>nil}\n{\"template\"=>\"90.1-2016\", \"cooling_type\"=>\"AirCooled\", \"heating_type\"=>\"Electric Resistance or None\", \"subcategory\"=>\"Single Package\", \"minimum_capacity\"=>0.0, \"maximum_capacity\"=>64999.0, \"start_date\"=>\"2015-01-01T00:00:00+00:00\", \"end_date\"=>\"2999-09-09T00:00:00+00:00\", \"minimum_seasonal_energy_efficiency_ratio\"=>14.0, \"minimum_energy_efficiency_ratio\"=>nil, \"minimum_integrated_part_load_value\"=>nil, \"minimum_integrated_energy_efficiency_ratio\"=>nil, \"ptac_eer_coefficient_1\"=>nil, \"ptac_eer_coefficient_2\"=>nil, \"minimum_scop\"=>nil, \"cool_cap_ft\"=>\"PSZ-AC_Unitary_PackagecoolCapFT\", \"cool_cap_fflow\"=>\"PSZ-AC_Unitary_PackagecoolFFF\", \"cool_eir_ft\"=>\"PSZ-AC DX Unitary Package EIRFT\", \"cool_eir_fflow\"=>\"PSZ-AC_Unitary_PackagecoolEIRFFF\", \"cool_plf_fplr\"=>\"PSZ-AC_Unitary_PackagecoolPLR\", \"notes\"=>nil}",
               "[openstudio.standards.Model] Find object search criteria returned 2 results, the first one will be returned. Called from :/ruby/2.7.0/gems/openstudio-standards-0.2.16/lib/openstudio-standards/standards/Standards.CoilCoolingDXSingleSpeed.rb:191:in `coil_cooling_dx_single_speed_apply_efficiency_and_curves'. \n Search criteria: \n {\"template\"=>\"90.1-2016\", \"cooling_type\"=>\"AirCooled\", \"subcategory\"=>\"Single Package\"}, capacity = 22088.326307302454 \n  All results: \n {\"template\"=>\"90.1-2016\", \"cooling_type\"=>\"AirCooled\", \"heating_type\"=>\"All Other\", \"subcategory\"=>\"Single Package\", \"minimum_capacity\"=>0.0, \"maximum_capacity\"=>64999.0, \"start_date\"=>\"1919-09-09T00:00:00+00:00\", \"end_date\"=>\"2999-09-09T00:00:00+00:00\", \"minimum_seasonal_energy_efficiency_ratio\"=>14.0, \"minimum_energy_efficiency_ratio\"=>nil, \"minimum_integrated_part_load_value\"=>nil, \"minimum_integrated_energy_efficiency_ratio\"=>nil, \"ptac_eer_coefficient_1\"=>nil, \"ptac_eer_coefficient_2\"=>nil, \"minimum_scop\"=>nil, \"cool_cap_ft\"=>\"PSZ-AC_Unitary_PackagecoolCapFT\", \"cool_cap_fflow\"=>\"PSZ-AC_Unitary_PackagecoolFFF\", \"cool_eir_ft\"=>\"PSZ-AC DX Unitary Package EIRFT\", \"cool_eir_fflow\"=>\"PSZ-AC_Unitary_PackagecoolEIRFFF\", \"cool_plf_fplr\"=>\"PSZ-AC_Unitary_PackagecoolPLR\", \"notes\"=>nil}\n{\"template\"=>\"90.1-2016\", \"cooling_type\"=>\"AirCooled\", \"heating_type\"=>\"Electric Resistance or None\", \"subcategory\"=>\"Single Package\", \"minimum_capacity\"=>0.0, \"maximum_capacity\"=>64999.0, \"start_date\"=>\"2015-01-01T00:00:00+00:00\", \"end_date\"=>\"2999-09-09T00:00:00+00:00\", \"minimum_seasonal_energy_efficiency_ratio\"=>14.0, \"minimum_energy_efficiency_ratio\"=>nil, \"minimum_integrated_part_load_value\"=>nil, \"minimum_integrated_energy_efficiency_ratio\"=>nil, \"ptac_eer_coefficient_1\"=>nil, \"ptac_eer_coefficient_2\"=>nil, \"minimum_scop\"=>nil, \"cool_cap_ft\"=>\"PSZ-AC_Unitary_PackagecoolCapFT\", \"cool_cap_fflow\"=>\"PSZ-AC_Unitary_PackagecoolFFF\", \"cool_eir_ft\"=>\"PSZ-AC DX Unitary Package EIRFT\", \"cool_eir_fflow\"=>\"PSZ-AC_Unitary_PackagecoolEIRFFF\", \"cool_plf_fplr\"=>\"PSZ-AC_Unitary_PackagecoolPLR\", \"notes\"=>nil}",
               "[openstudio.standards.Model] Find object search criteria returned 2 results, the first one will be returned. Called from :/ruby/2.7.0/gems/openstudio-standards-0.2.16/lib/openstudio-standards/standards/Standards.CoilCoolingDXSingleSpeed.rb:61:in `coil_cooling_dx_single_speed_standard_minimum_cop'. \n Search criteria: \n {\"template\"=>\"90.1-2016\", \"cooling_type\"=>\"AirCooled\", \"subcategory\"=>\"Single Package\"}, capacity = 22088.326307302454 \n  All results: \n {\"template\"=>\"90.1-2016\", \"cooling_type\"=>\"AirCooled\", \"heating_type\"=>\"All Other\", \"subcategory\"=>\"Single Package\", \"minimum_capacity\"=>0.0, \"maximum_capacity\"=>64999.0, \"start_date\"=>\"1919-09-09T00:00:00+00:00\", \"end_date\"=>\"2999-09-09T00:00:00+00:00\", \"minimum_seasonal_energy_efficiency_ratio\"=>14.0, \"minimum_energy_efficiency_ratio\"=>nil, \"minimum_integrated_part_load_value\"=>nil, \"minimum_integrated_energy_efficiency_ratio\"=>nil, \"ptac_eer_coefficient_1\"=>nil, \"ptac_eer_coefficient_2\"=>nil, \"minimum_scop\"=>nil, \"cool_cap_ft\"=>\"PSZ-AC_Unitary_PackagecoolCapFT\", \"cool_cap_fflow\"=>\"PSZ-AC_Unitary_PackagecoolFFF\", \"cool_eir_ft\"=>\"PSZ-AC DX Unitary Package EIRFT\", \"cool_eir_fflow\"=>\"PSZ-AC_Unitary_PackagecoolEIRFFF\", \"cool_plf_fplr\"=>\"PSZ-AC_Unitary_PackagecoolPLR\", \"notes\"=>nil}\n{\"template\"=>\"90.1-2016\", \"cooling_type\"=>\"AirCooled\", \"heating_type\"=>\"Electric Resistance or None\", \"subcategory\"=>\"Single Package\", \"minimum_capacity\"=>0.0, \"maximum_capacity\"=>64999.0, \"start_date\"=>\"2015-01-01T00:00:00+00:00\", \"end_date\"=>\"2999-09-09T00:00:00+00:00\", \"minimum_seasonal_energy_efficiency_ratio\"=>14.0, \"minimum_energy_efficiency_ratio\"=>nil, \"minimum_integrated_part_load_value\"=>nil, \"minimum_integrated_energy_efficiency_ratio\"=>nil, \"ptac_eer_coefficient_1\"=>nil, \"ptac_eer_coefficient_2\"=>nil, \"minimum_scop\"=>nil, \"cool_cap_ft\"=>\"PSZ-AC_Unitary_PackagecoolCapFT\", \"cool_cap_fflow\"=>\"PSZ-AC_Unitary_PackagecoolFFF\", \"cool_eir_ft\"=>\"PSZ-AC DX Unitary Package EIRFT\", \"cool_eir_fflow\"=>\"PSZ-AC_Unitary_PackagecoolEIRFFF\", \"cool_plf_fplr\"=>\"PSZ-AC_Unitary_PackagecoolPLR\", \"notes\"=>nil}"
            ]
         }
      }
   ],
   "updated_at" : "20221129T145502Z"
}